Circuit: * F:\Projekty\Gamma_PIN\Simulations\Gamma PIN LTC6268 TIA sim\Gamma PIN LTC6268 TIA sim.asc

C4: Increased Cpar to 1e-013
C1: Increased Cpar to 1e-012
Direct Newton iteration failed to find .op point.  (Use ".option noopiter" to skip.)
Starting Gmin stepping
Gmin = 10
Gmin = 1.07374
Gmin = 0.115292
Gmin = 0.0123794
Gmin = 0.00132923
Gmin = 0.000142725
Gmin = 1.5325e-005
Gmin = 1.6455e-006
vernier = 0.5
vernier = 0.25
Gmin = 4.79288e-007
vernier = 0.125
vernier = 0.166667
Gmin = 3.63572e-007
vernier = 0.222222
vernier = 0.296296
Gmin = 2.16513e-007
vernier = 0.395061
Gmin = 9.45775e-008
vernier = 0.526748
vernier = 0.702331
Gmin = 2.52212e-008
vernier = 0.936441
vernier = 1
Gmin = 3.51537e-009
Gmin = 3.7746e-010
Gmin = 4.05295e-011
Gmin = 4.35182e-012
Gmin = 4.67273e-013
Gmin = 0
Gmin stepping succeeded in finding the operating point.

.step r6=10000
.step r6=20000
.step r6=30000
.step r6=40000
.step r6=50000
.step r6=60000
.step r6=70000
.step r6=80000
.step r6=90000
.step r6=100000
.step r6=110000
.step r6=120000
.step r6=130000
.step r6=140000
.step r6=150000
.step r6=160000
.step r6=170000
.step r6=180000
.step r6=190000
.step r6=200000
.step r6=210000
.step r6=220000
.step r6=230000
.step r6=240000
.step r6=250000
.step r6=260000
.step r6=270000
.step r6=280000
.step r6=290000
.step r6=300000
.step r6=310000
.step r6=320000
.step r6=330000
.step r6=340000
.step r6=350000
.step r6=360000
.step r6=370000
.step r6=380000
.step r6=390000
.step r6=400000
.step r6=410000
.step r6=420000
.step r6=430000
.step r6=440000
.step r6=450000
.step r6=460000
.step r6=470000
.step r6=480000
.step r6=490000
.step r6=500000
.step r6=510000
.step r6=520000
.step r6=530000
.step r6=540000
.step r6=550000
.step r6=560000
.step r6=570000
.step r6=580000
.step r6=590000
.step r6=600000
.step r6=610000
.step r6=620000
.step r6=630000
.step r6=640000
.step r6=650000
.step r6=660000
.step r6=670000
.step r6=680000
.step r6=690000
.step r6=700000
.step r6=710000
.step r6=720000
.step r6=730000
.step r6=740000
.step r6=750000
.step r6=760000
.step r6=770000
.step r6=780000
.step r6=790000
.step r6=800000
.step r6=810000
.step r6=820000
.step r6=830000
.step r6=840000
.step r6=850000
.step r6=860000
.step r6=870000
.step r6=880000
.step r6=890000
.step r6=900000
.step r6=910000
.step r6=920000
.step r6=930000
.step r6=940000
.step r6=950000
.step r6=960000
.step r6=970000
.step r6=980000
.step r6=990000
.step r6=1e+006
.step r6=1.01e+006
.step r6=1.02e+006
.step r6=1.03e+006
.step r6=1.04e+006
.step r6=1.05e+006
.step r6=1.06e+006
.step r6=1.07e+006
.step r6=1.08e+006
.step r6=1.09e+006
.step r6=1.1e+006
.step r6=1.11e+006
.step r6=1.12e+006
.step r6=1.13e+006
.step r6=1.14e+006
.step r6=1.15e+006
.step r6=1.16e+006
.step r6=1.17e+006
.step r6=1.18e+006
.step r6=1.19e+006
.step r6=1.2e+006
.step r6=1.21e+006
.step r6=1.22e+006
.step r6=1.23e+006
.step r6=1.24e+006
.step r6=1.25e+006
.step r6=1.26e+006
.step r6=1.27e+006
.step r6=1.28e+006
.step r6=1.29e+006
.step r6=1.3e+006
.step r6=1.31e+006
.step r6=1.32e+006
.step r6=1.33e+006
.step r6=1.34e+006
.step r6=1.35e+006
.step r6=1.36e+006
.step r6=1.37e+006
.step r6=1.38e+006
.step r6=1.39e+006
.step r6=1.4e+006
.step r6=1.41e+006
.step r6=1.42e+006
.step r6=1.43e+006
.step r6=1.44e+006
.step r6=1.45e+006
.step r6=1.46e+006
.step r6=1.47e+006
.step r6=1.48e+006
.step r6=1.49e+006
.step r6=1.5e+006
.step r6=1.51e+006
.step r6=1.52e+006
.step r6=1.53e+006
.step r6=1.54e+006
.step r6=1.55e+006
.step r6=1.56e+006
.step r6=1.57e+006
.step r6=1.58e+006
.step r6=1.59e+006
.step r6=1.6e+006
.step r6=1.61e+006
.step r6=1.62e+006
.step r6=1.63e+006
.step r6=1.64e+006
.step r6=1.65e+006
.step r6=1.66e+006
.step r6=1.67e+006
.step r6=1.68e+006
.step r6=1.69e+006
.step r6=1.7e+006
.step r6=1.71e+006
.step r6=1.72e+006
.step r6=1.73e+006
.step r6=1.74e+006
.step r6=1.75e+006
.step r6=1.76e+006
.step r6=1.77e+006
.step r6=1.78e+006
.step r6=1.79e+006
.step r6=1.8e+006
.step r6=1.81e+006
.step r6=1.82e+006
.step r6=1.83e+006
.step r6=1.84e+006
.step r6=1.85e+006
.step r6=1.86e+006
.step r6=1.87e+006
.step r6=1.88e+006
.step r6=1.89e+006
.step r6=1.9e+006
.step r6=1.91e+006
.step r6=1.92e+006
.step r6=1.93e+006
.step r6=1.94e+006
.step r6=1.95e+006
.step r6=1.96e+006
.step r6=1.97e+006
.step r6=1.98e+006
.step r6=1.99e+006
.step r6=2e+006
.step r6=2.01e+006
.step r6=2.02e+006
.step r6=2.03e+006
.step r6=2.04e+006
.step r6=2.05e+006
.step r6=2.06e+006
.step r6=2.07e+006
.step r6=2.08e+006
.step r6=2.09e+006
.step r6=2.1e+006
.step r6=2.11e+006
.step r6=2.12e+006
.step r6=2.13e+006
.step r6=2.14e+006
.step r6=2.15e+006
.step r6=2.16e+006
.step r6=2.17e+006
.step r6=2.18e+006
.step r6=2.19e+006
.step r6=2.2e+006
.step r6=2.21e+006
.step r6=2.22e+006
.step r6=2.23e+006
.step r6=2.24e+006
.step r6=2.25e+006
.step r6=2.26e+006
.step r6=2.27e+006
.step r6=2.28e+006
.step r6=2.29e+006
.step r6=2.3e+006
.step r6=2.31e+006
.step r6=2.32e+006
.step r6=2.33e+006
.step r6=2.34e+006
.step r6=2.35e+006
.step r6=2.36e+006
.step r6=2.37e+006
.step r6=2.38e+006
.step r6=2.39e+006
.step r6=2.4e+006
.step r6=2.41e+006
.step r6=2.42e+006
.step r6=2.43e+006
.step r6=2.44e+006
.step r6=2.45e+006
.step r6=2.46e+006
.step r6=2.47e+006
.step r6=2.48e+006
.step r6=2.49e+006
.step r6=2.5e+006
.step r6=2.51e+006
.step r6=2.52e+006
.step r6=2.53e+006
.step r6=2.54e+006
.step r6=2.55e+006
.step r6=2.56e+006
.step r6=2.57e+006
.step r6=2.58e+006
.step r6=2.59e+006
.step r6=2.6e+006
.step r6=2.61e+006
.step r6=2.62e+006
.step r6=2.63e+006
.step r6=2.64e+006
.step r6=2.65e+006
.step r6=2.66e+006
.step r6=2.67e+006
.step r6=2.68e+006
.step r6=2.69e+006
.step r6=2.7e+006
.step r6=2.71e+006
.step r6=2.72e+006
.step r6=2.73e+006
.step r6=2.74e+006
.step r6=2.75e+006
.step r6=2.76e+006
.step r6=2.77e+006
.step r6=2.78e+006
.step r6=2.79e+006
.step r6=2.8e+006
.step r6=2.81e+006
.step r6=2.82e+006
.step r6=2.83e+006
.step r6=2.84e+006
.step r6=2.85e+006
.step r6=2.86e+006
.step r6=2.87e+006
.step r6=2.88e+006
.step r6=2.89e+006
.step r6=2.9e+006
.step r6=2.91e+006
.step r6=2.92e+006
.step r6=2.93e+006
.step r6=2.94e+006
.step r6=2.95e+006
.step r6=2.96e+006
.step r6=2.97e+006
.step r6=2.98e+006
.step r6=2.99e+006
.step r6=3e+006
.step r6=3.01e+006
.step r6=3.02e+006
.step r6=3.03e+006
.step r6=3.04e+006
.step r6=3.05e+006
.step r6=3.06e+006
.step r6=3.07e+006
.step r6=3.08e+006
.step r6=3.09e+006
.step r6=3.1e+006
.step r6=3.11e+006
.step r6=3.12e+006
.step r6=3.13e+006
.step r6=3.14e+006
.step r6=3.15e+006
.step r6=3.16e+006
.step r6=3.17e+006
.step r6=3.18e+006
.step r6=3.19e+006
.step r6=3.2e+006
.step r6=3.21e+006
.step r6=3.22e+006
.step r6=3.23e+006
.step r6=3.24e+006
.step r6=3.25e+006
.step r6=3.26e+006
.step r6=3.27e+006
.step r6=3.28e+006
.step r6=3.29e+006
.step r6=3.3e+006
.step r6=3.31e+006
.step r6=3.32e+006
.step r6=3.33e+006
.step r6=3.34e+006
.step r6=3.35e+006
.step r6=3.36e+006
.step r6=3.37e+006
.step r6=3.38e+006
.step r6=3.39e+006
.step r6=3.4e+006
.step r6=3.41e+006
.step r6=3.42e+006
.step r6=3.43e+006
.step r6=3.44e+006
.step r6=3.45e+006
.step r6=3.46e+006
.step r6=3.47e+006
.step r6=3.48e+006
.step r6=3.49e+006
.step r6=3.5e+006
.step r6=3.51e+006
.step r6=3.52e+006
.step r6=3.53e+006
.step r6=3.54e+006
.step r6=3.55e+006
.step r6=3.56e+006
.step r6=3.57e+006
.step r6=3.58e+006
.step r6=3.59e+006
.step r6=3.6e+006
.step r6=3.61e+006
.step r6=3.62e+006
.step r6=3.63e+006
.step r6=3.64e+006
.step r6=3.65e+006
.step r6=3.66e+006
.step r6=3.67e+006
.step r6=3.68e+006
.step r6=3.69e+006
.step r6=3.7e+006
.step r6=3.71e+006
.step r6=3.72e+006
.step r6=3.73e+006
.step r6=3.74e+006
.step r6=3.75e+006
.step r6=3.76e+006
.step r6=3.77e+006
.step r6=3.78e+006
.step r6=3.79e+006
.step r6=3.8e+006
.step r6=3.81e+006
.step r6=3.82e+006
.step r6=3.83e+006
.step r6=3.84e+006
.step r6=3.85e+006
.step r6=3.86e+006
.step r6=3.87e+006
.step r6=3.88e+006
.step r6=3.89e+006
.step r6=3.9e+006
.step r6=3.91e+006
.step r6=3.92e+006
.step r6=3.93e+006
.step r6=3.94e+006
.step r6=3.95e+006
.step r6=3.96e+006
.step r6=3.97e+006
.step r6=3.98e+006
.step r6=3.99e+006
.step r6=4e+006
.step r6=4.01e+006
.step r6=4.02e+006
.step r6=4.03e+006
.step r6=4.04e+006
.step r6=4.05e+006
.step r6=4.06e+006
.step r6=4.07e+006
.step r6=4.08e+006
.step r6=4.09e+006
.step r6=4.1e+006
.step r6=4.11e+006
.step r6=4.12e+006
.step r6=4.13e+006
.step r6=4.14e+006
.step r6=4.15e+006
.step r6=4.16e+006
.step r6=4.17e+006
.step r6=4.18e+006
.step r6=4.19e+006
.step r6=4.2e+006
.step r6=4.21e+006
.step r6=4.22e+006
.step r6=4.23e+006
.step r6=4.24e+006
.step r6=4.25e+006
.step r6=4.26e+006
.step r6=4.27e+006
.step r6=4.28e+006
.step r6=4.29e+006
.step r6=4.3e+006
.step r6=4.31e+006
.step r6=4.32e+006
.step r6=4.33e+006
.step r6=4.34e+006
.step r6=4.35e+006
.step r6=4.36e+006
.step r6=4.37e+006
.step r6=4.38e+006
.step r6=4.39e+006
.step r6=4.4e+006
.step r6=4.41e+006
.step r6=4.42e+006
.step r6=4.43e+006
.step r6=4.44e+006
.step r6=4.45e+006
.step r6=4.46e+006
.step r6=4.47e+006
.step r6=4.48e+006
.step r6=4.49e+006
.step r6=4.5e+006
.step r6=4.51e+006
.step r6=4.52e+006
.step r6=4.53e+006
.step r6=4.54e+006
.step r6=4.55e+006
.step r6=4.56e+006
.step r6=4.57e+006
.step r6=4.58e+006
.step r6=4.59e+006
.step r6=4.6e+006
.step r6=4.61e+006
.step r6=4.62e+006
.step r6=4.63e+006
.step r6=4.64e+006
.step r6=4.65e+006
.step r6=4.66e+006
.step r6=4.67e+006
.step r6=4.68e+006
.step r6=4.69e+006
.step r6=4.7e+006
.step r6=4.71e+006
.step r6=4.72e+006
.step r6=4.73e+006
.step r6=4.74e+006
.step r6=4.75e+006
.step r6=4.76e+006
.step r6=4.77e+006
.step r6=4.78e+006
.step r6=4.79e+006
.step r6=4.8e+006
.step r6=4.81e+006
.step r6=4.82e+006
.step r6=4.83e+006
.step r6=4.84e+006
.step r6=4.85e+006
.step r6=4.86e+006
.step r6=4.87e+006
.step r6=4.88e+006
.step r6=4.89e+006
.step r6=4.9e+006
.step r6=4.91e+006
.step r6=4.92e+006
.step r6=4.93e+006
.step r6=4.94e+006
.step r6=4.95e+006
.step r6=4.96e+006
.step r6=4.97e+006
.step r6=4.98e+006
.step r6=4.99e+006
.step r6=5e+006
.step r6=5.01e+006
.step r6=5.02e+006
.step r6=5.03e+006
.step r6=5.04e+006
.step r6=5.05e+006
.step r6=5.06e+006
.step r6=5.07e+006
.step r6=5.08e+006
.step r6=5.09e+006
.step r6=5.1e+006
.step r6=5.11e+006
.step r6=5.12e+006
.step r6=5.13e+006
.step r6=5.14e+006
.step r6=5.15e+006
.step r6=5.16e+006
.step r6=5.17e+006
.step r6=5.18e+006
.step r6=5.19e+006
.step r6=5.2e+006
.step r6=5.21e+006
.step r6=5.22e+006
.step r6=5.23e+006
.step r6=5.24e+006
.step r6=5.25e+006
.step r6=5.26e+006
.step r6=5.27e+006
.step r6=5.28e+006
.step r6=5.29e+006
.step r6=5.3e+006
.step r6=5.31e+006
.step r6=5.32e+006
.step r6=5.33e+006
.step r6=5.34e+006
.step r6=5.35e+006
.step r6=5.36e+006
.step r6=5.37e+006
.step r6=5.38e+006
.step r6=5.39e+006
.step r6=5.4e+006
.step r6=5.41e+006
.step r6=5.42e+006
.step r6=5.43e+006
.step r6=5.44e+006
.step r6=5.45e+006
.step r6=5.46e+006
.step r6=5.47e+006
.step r6=5.48e+006
.step r6=5.49e+006
.step r6=5.5e+006
.step r6=5.51e+006
.step r6=5.52e+006
.step r6=5.53e+006
.step r6=5.54e+006
.step r6=5.55e+006
.step r6=5.56e+006
.step r6=5.57e+006
.step r6=5.58e+006
.step r6=5.59e+006
.step r6=5.6e+006
.step r6=5.61e+006
.step r6=5.62e+006
.step r6=5.63e+006
.step r6=5.64e+006
.step r6=5.65e+006
.step r6=5.66e+006
.step r6=5.67e+006
.step r6=5.68e+006
.step r6=5.69e+006
.step r6=5.7e+006
.step r6=5.71e+006
.step r6=5.72e+006
.step r6=5.73e+006
.step r6=5.74e+006
.step r6=5.75e+006
.step r6=5.76e+006
.step r6=5.77e+006
.step r6=5.78e+006
.step r6=5.79e+006
.step r6=5.8e+006
.step r6=5.81e+006
.step r6=5.82e+006
.step r6=5.83e+006
.step r6=5.84e+006
.step r6=5.85e+006
.step r6=5.86e+006
.step r6=5.87e+006
.step r6=5.88e+006
.step r6=5.89e+006
.step r6=5.9e+006
.step r6=5.91e+006
.step r6=5.92e+006
.step r6=5.93e+006
.step r6=5.94e+006
.step r6=5.95e+006
.step r6=5.96e+006
.step r6=5.97e+006
.step r6=5.98e+006
.step r6=5.99e+006
.step r6=6e+006
.step r6=6.01e+006
.step r6=6.02e+006
.step r6=6.03e+006
.step r6=6.04e+006
.step r6=6.05e+006
.step r6=6.06e+006
.step r6=6.07e+006
.step r6=6.08e+006
.step r6=6.09e+006
.step r6=6.1e+006
.step r6=6.11e+006
.step r6=6.12e+006
.step r6=6.13e+006
.step r6=6.14e+006
.step r6=6.15e+006
.step r6=6.16e+006
.step r6=6.17e+006
.step r6=6.18e+006
.step r6=6.19e+006
.step r6=6.2e+006
.step r6=6.21e+006
.step r6=6.22e+006
.step r6=6.23e+006
.step r6=6.24e+006
.step r6=6.25e+006
.step r6=6.26e+006
.step r6=6.27e+006
.step r6=6.28e+006
.step r6=6.29e+006
.step r6=6.3e+006
.step r6=6.31e+006
.step r6=6.32e+006
.step r6=6.33e+006
.step r6=6.34e+006
.step r6=6.35e+006
.step r6=6.36e+006
.step r6=6.37e+006
.step r6=6.38e+006
.step r6=6.39e+006
.step r6=6.4e+006
.step r6=6.41e+006
.step r6=6.42e+006
.step r6=6.43e+006
.step r6=6.44e+006
.step r6=6.45e+006
.step r6=6.46e+006
.step r6=6.47e+006
.step r6=6.48e+006
.step r6=6.49e+006
.step r6=6.5e+006
.step r6=6.51e+006
.step r6=6.52e+006
.step r6=6.53e+006
.step r6=6.54e+006
.step r6=6.55e+006
.step r6=6.56e+006
.step r6=6.57e+006
.step r6=6.58e+006
.step r6=6.59e+006
.step r6=6.6e+006
.step r6=6.61e+006
.step r6=6.62e+006
.step r6=6.63e+006
.step r6=6.64e+006
.step r6=6.65e+006
.step r6=6.66e+006
.step r6=6.67e+006
.step r6=6.68e+006
.step r6=6.69e+006
.step r6=6.7e+006
.step r6=6.71e+006
.step r6=6.72e+006
.step r6=6.73e+006
.step r6=6.74e+006
.step r6=6.75e+006
.step r6=6.76e+006
.step r6=6.77e+006
.step r6=6.78e+006
.step r6=6.79e+006
.step r6=6.8e+006
.step r6=6.81e+006
.step r6=6.82e+006
.step r6=6.83e+006
.step r6=6.84e+006
.step r6=6.85e+006
.step r6=6.86e+006
.step r6=6.87e+006
.step r6=6.88e+006
.step r6=6.89e+006
.step r6=6.9e+006
.step r6=6.91e+006
.step r6=6.92e+006
.step r6=6.93e+006
.step r6=6.94e+006
.step r6=6.95e+006
.step r6=6.96e+006
.step r6=6.97e+006
.step r6=6.98e+006
.step r6=6.99e+006
.step r6=7e+006
.step r6=7.01e+006
.step r6=7.02e+006
.step r6=7.03e+006
.step r6=7.04e+006
.step r6=7.05e+006
.step r6=7.06e+006
.step r6=7.07e+006
.step r6=7.08e+006
.step r6=7.09e+006
.step r6=7.1e+006
.step r6=7.11e+006
.step r6=7.12e+006
.step r6=7.13e+006
.step r6=7.14e+006
.step r6=7.15e+006
.step r6=7.16e+006
.step r6=7.17e+006
.step r6=7.18e+006
.step r6=7.19e+006
.step r6=7.2e+006
.step r6=7.21e+006
.step r6=7.22e+006
.step r6=7.23e+006
.step r6=7.24e+006
.step r6=7.25e+006
.step r6=7.26e+006
.step r6=7.27e+006
.step r6=7.28e+006
.step r6=7.29e+006
.step r6=7.3e+006
.step r6=7.31e+006
.step r6=7.32e+006
.step r6=7.33e+006
.step r6=7.34e+006
.step r6=7.35e+006
.step r6=7.36e+006
.step r6=7.37e+006
.step r6=7.38e+006
.step r6=7.39e+006
.step r6=7.4e+006
.step r6=7.41e+006
.step r6=7.42e+006
.step r6=7.43e+006
.step r6=7.44e+006
.step r6=7.45e+006
.step r6=7.46e+006
.step r6=7.47e+006
.step r6=7.48e+006
.step r6=7.49e+006
.step r6=7.5e+006
.step r6=7.51e+006
.step r6=7.52e+006
.step r6=7.53e+006
.step r6=7.54e+006
.step r6=7.55e+006
.step r6=7.56e+006
.step r6=7.57e+006
.step r6=7.58e+006
.step r6=7.59e+006
.step r6=7.6e+006
.step r6=7.61e+006
.step r6=7.62e+006
.step r6=7.63e+006
.step r6=7.64e+006
.step r6=7.65e+006
.step r6=7.66e+006
.step r6=7.67e+006
.step r6=7.68e+006
.step r6=7.69e+006
.step r6=7.7e+006
.step r6=7.71e+006
.step r6=7.72e+006
.step r6=7.73e+006
.step r6=7.74e+006
.step r6=7.75e+006
.step r6=7.76e+006
.step r6=7.77e+006
.step r6=7.78e+006
.step r6=7.79e+006
.step r6=7.8e+006
.step r6=7.81e+006
.step r6=7.82e+006
.step r6=7.83e+006
.step r6=7.84e+006
.step r6=7.85e+006
.step r6=7.86e+006
.step r6=7.87e+006
.step r6=7.88e+006
.step r6=7.89e+006
.step r6=7.9e+006
.step r6=7.91e+006
.step r6=7.92e+006
.step r6=7.93e+006
.step r6=7.94e+006
.step r6=7.95e+006
.step r6=7.96e+006
.step r6=7.97e+006
.step r6=7.98e+006
.step r6=7.99e+006
.step r6=8e+006
.step r6=8.01e+006
.step r6=8.02e+006
.step r6=8.03e+006
.step r6=8.04e+006
.step r6=8.05e+006
.step r6=8.06e+006
.step r6=8.07e+006
.step r6=8.08e+006
.step r6=8.09e+006
.step r6=8.1e+006
.step r6=8.11e+006
.step r6=8.12e+006
.step r6=8.13e+006
.step r6=8.14e+006
.step r6=8.15e+006
.step r6=8.16e+006
.step r6=8.17e+006
.step r6=8.18e+006
.step r6=8.19e+006
.step r6=8.2e+006
.step r6=8.21e+006
.step r6=8.22e+006
.step r6=8.23e+006
.step r6=8.24e+006
.step r6=8.25e+006
.step r6=8.26e+006
.step r6=8.27e+006
.step r6=8.28e+006
.step r6=8.29e+006
.step r6=8.3e+006
.step r6=8.31e+006
.step r6=8.32e+006
.step r6=8.33e+006
.step r6=8.34e+006
.step r6=8.35e+006
.step r6=8.36e+006
.step r6=8.37e+006
.step r6=8.38e+006
.step r6=8.39e+006
.step r6=8.4e+006
.step r6=8.41e+006
.step r6=8.42e+006
.step r6=8.43e+006
.step r6=8.44e+006
.step r6=8.45e+006
.step r6=8.46e+006
.step r6=8.47e+006
.step r6=8.48e+006
.step r6=8.49e+006
.step r6=8.5e+006
.step r6=8.51e+006
.step r6=8.52e+006
.step r6=8.53e+006
.step r6=8.54e+006
.step r6=8.55e+006
.step r6=8.56e+006
.step r6=8.57e+006
.step r6=8.58e+006
.step r6=8.59e+006
.step r6=8.6e+006
.step r6=8.61e+006
.step r6=8.62e+006
.step r6=8.63e+006
.step r6=8.64e+006
.step r6=8.65e+006
.step r6=8.66e+006
.step r6=8.67e+006
.step r6=8.68e+006
.step r6=8.69e+006
.step r6=8.7e+006
.step r6=8.71e+006
.step r6=8.72e+006
.step r6=8.73e+006
.step r6=8.74e+006
.step r6=8.75e+006
.step r6=8.76e+006
.step r6=8.77e+006
.step r6=8.78e+006
.step r6=8.79e+006
.step r6=8.8e+006
.step r6=8.81e+006
.step r6=8.82e+006
.step r6=8.83e+006
.step r6=8.84e+006
.step r6=8.85e+006
.step r6=8.86e+006
.step r6=8.87e+006
.step r6=8.88e+006
.step r6=8.89e+006
.step r6=8.9e+006
.step r6=8.91e+006
.step r6=8.92e+006
.step r6=8.93e+006
.step r6=8.94e+006
.step r6=8.95e+006
.step r6=8.96e+006
.step r6=8.97e+006
.step r6=8.98e+006
.step r6=8.99e+006
.step r6=9e+006
.step r6=9.01e+006
.step r6=9.02e+006
.step r6=9.03e+006
.step r6=9.04e+006
.step r6=9.05e+006
.step r6=9.06e+006
.step r6=9.07e+006
.step r6=9.08e+006
.step r6=9.09e+006
.step r6=9.1e+006
.step r6=9.11e+006
.step r6=9.12e+006
.step r6=9.13e+006
.step r6=9.14e+006
.step r6=9.15e+006
.step r6=9.16e+006
.step r6=9.17e+006
.step r6=9.18e+006
.step r6=9.19e+006
.step r6=9.2e+006
.step r6=9.21e+006
.step r6=9.22e+006
.step r6=9.23e+006
.step r6=9.24e+006
.step r6=9.25e+006
.step r6=9.26e+006
.step r6=9.27e+006
.step r6=9.28e+006
.step r6=9.29e+006
.step r6=9.3e+006
.step r6=9.31e+006
.step r6=9.32e+006
.step r6=9.33e+006
.step r6=9.34e+006
.step r6=9.35e+006
.step r6=9.36e+006
.step r6=9.37e+006
.step r6=9.38e+006
.step r6=9.39e+006
.step r6=9.4e+006
.step r6=9.41e+006
.step r6=9.42e+006
.step r6=9.43e+006
.step r6=9.44e+006
.step r6=9.45e+006
.step r6=9.46e+006
.step r6=9.47e+006
.step r6=9.48e+006
.step r6=9.49e+006
.step r6=9.5e+006
.step r6=9.51e+006
.step r6=9.52e+006
.step r6=9.53e+006
.step r6=9.54e+006
.step r6=9.55e+006
.step r6=9.56e+006
.step r6=9.57e+006
.step r6=9.58e+006
.step r6=9.59e+006
.step r6=9.6e+006
.step r6=9.61e+006
.step r6=9.62e+006
.step r6=9.63e+006
.step r6=9.64e+006
.step r6=9.65e+006
.step r6=9.66e+006
.step r6=9.67e+006
.step r6=9.68e+006
.step r6=9.69e+006
.step r6=9.7e+006
.step r6=9.71e+006
.step r6=9.72e+006
.step r6=9.73e+006
.step r6=9.74e+006
.step r6=9.75e+006
.step r6=9.76e+006
.step r6=9.77e+006
.step r6=9.78e+006
.step r6=9.79e+006
.step r6=9.8e+006
.step r6=9.81e+006
.step r6=9.82e+006
.step r6=9.83e+006
.step r6=9.84e+006
.step r6=9.85e+006
.step r6=9.86e+006
.step r6=9.87e+006
.step r6=9.88e+006
.step r6=9.89e+006
.step r6=9.9e+006
.step r6=9.91e+006
.step r6=9.92e+006
.step r6=9.93e+006
.step r6=9.94e+006
.step r6=9.95e+006
.step r6=9.96e+006
.step r6=9.97e+006
.step r6=9.98e+006
.step r6=9.99e+006
.step r6=1e+007


Measurement: vmin
  step	MIN(v(out))	FROM	TO
     1	2.49967	0	2e-006
     2	2.49938	0	2e-006
     3	2.49907	0	2e-006
     4	2.4988	0	2e-006
     5	2.49852	0	2e-006
     6	2.49826	0	2e-006
     7	2.498	0	2e-006
     8	2.49774	0	2e-006
     9	2.49748	0	2e-006
    10	2.49721	0	2e-006
    11	2.49697	0	2e-006
    12	2.49671	0	2e-006
    13	2.49646	0	2e-006
    14	2.4962	0	2e-006
    15	2.49589	0	2e-006
    16	2.4957	0	2e-006
    17	2.49548	0	2e-006
    18	2.49524	0	2e-006
    19	2.49502	0	2e-006
    20	2.49479	0	2e-006
    21	2.49455	0	2e-006
    22	2.49432	0	2e-006
    23	2.4941	0	2e-006
    24	2.49387	0	2e-006
    25	2.49365	0	2e-006
    26	2.49343	0	2e-006
    27	2.4932	0	2e-006
    28	2.493	0	2e-006
    29	2.49278	0	2e-006
    30	2.49254	0	2e-006
    31	2.49234	0	2e-006
    32	2.49211	0	2e-006
    33	2.49188	0	2e-006
    34	2.49165	0	2e-006
    35	2.49142	0	2e-006
    36	2.49119	0	2e-006
    37	2.49097	0	2e-006
    38	2.49074	0	2e-006
    39	2.49051	0	2e-006
    40	2.49029	0	2e-006
    41	2.49006	0	2e-006
    42	2.48984	0	2e-006
    43	2.48962	0	2e-006
    44	2.48939	0	2e-006
    45	2.48917	0	2e-006
    46	2.48895	0	2e-006
    47	2.48873	0	2e-006
    48	2.48851	0	2e-006
    49	2.48829	0	2e-006
    50	2.48807	0	2e-006
    51	2.48785	0	2e-006
    52	2.48763	0	2e-006
    53	2.48741	0	2e-006
    54	2.48719	0	2e-006
    55	2.48697	0	2e-006
    56	2.48675	0	2e-006
    57	2.48653	0	2e-006
    58	2.48632	0	2e-006
    59	2.4861	0	2e-006
    60	2.48588	0	2e-006
    61	2.48566	0	2e-006
    62	2.48545	0	2e-006
    63	2.48523	0	2e-006
    64	2.48501	0	2e-006
    65	2.4848	0	2e-006
    66	2.48458	0	2e-006
    67	2.48437	0	2e-006
    68	2.48415	0	2e-006
    69	2.48393	0	2e-006
    70	2.48372	0	2e-006
    71	2.4835	0	2e-006
    72	2.48329	0	2e-006
    73	2.48307	0	2e-006
    74	2.48286	0	2e-006
    75	2.48264	0	2e-006
    76	2.48243	0	2e-006
    77	2.48222	0	2e-006
    78	2.482	0	2e-006
    79	2.48179	0	2e-006
    80	2.48157	0	2e-006
    81	2.48136	0	2e-006
    82	2.48115	0	2e-006
    83	2.48093	0	2e-006
    84	2.48072	0	2e-006
    85	2.48051	0	2e-006
    86	2.48029	0	2e-006
    87	2.48008	0	2e-006
    88	2.47987	0	2e-006
    89	2.47965	0	2e-006
    90	2.47944	0	2e-006
    91	2.47923	0	2e-006
    92	2.47901	0	2e-006
    93	2.4788	0	2e-006
    94	2.47859	0	2e-006
    95	2.47838	0	2e-006
    96	2.47816	0	2e-006
    97	2.47795	0	2e-006
    98	2.47774	0	2e-006
    99	2.47753	0	2e-006
   100	2.47731	0	2e-006
   101	2.4771	0	2e-006
   102	2.47689	0	2e-006
   103	2.47668	0	2e-006
   104	2.47647	0	2e-006
   105	2.47625	0	2e-006
   106	2.47604	0	2e-006
   107	2.47583	0	2e-006
   108	2.47562	0	2e-006
   109	2.47541	0	2e-006
   110	2.47519	0	2e-006
   111	2.47498	0	2e-006
   112	2.47477	0	2e-006
   113	2.47456	0	2e-006
   114	2.47435	0	2e-006
   115	2.47414	0	2e-006
   116	2.47393	0	2e-006
   117	2.47371	0	2e-006
   118	2.4735	0	2e-006
   119	2.47329	0	2e-006
   120	2.47308	0	2e-006
   121	2.47287	0	2e-006
   122	2.47266	0	2e-006
   123	2.47245	0	2e-006
   124	2.47224	0	2e-006
   125	2.47202	0	2e-006
   126	2.47181	0	2e-006
   127	2.4716	0	2e-006
   128	2.47139	0	2e-006
   129	2.47118	0	2e-006
   130	2.47097	0	2e-006
   131	2.47076	0	2e-006
   132	2.47055	0	2e-006
   133	2.47034	0	2e-006
   134	2.47013	0	2e-006
   135	2.46992	0	2e-006
   136	2.4697	0	2e-006
   137	2.46949	0	2e-006
   138	2.46928	0	2e-006
   139	2.46907	0	2e-006
   140	2.46886	0	2e-006
   141	2.46865	0	2e-006
   142	2.46844	0	2e-006
   143	2.46823	0	2e-006
   144	2.46802	0	2e-006
   145	2.46781	0	2e-006
   146	2.4676	0	2e-006
   147	2.46739	0	2e-006
   148	2.46718	0	2e-006
   149	2.46697	0	2e-006
   150	2.46676	0	2e-006
   151	2.46655	0	2e-006
   152	2.46634	0	2e-006
   153	2.46613	0	2e-006
   154	2.46592	0	2e-006
   155	2.46571	0	2e-006
   156	2.4655	0	2e-006
   157	2.46529	0	2e-006
   158	2.46508	0	2e-006
   159	2.46486	0	2e-006
   160	2.46466	0	2e-006
   161	2.46445	0	2e-006
   162	2.46423	0	2e-006
   163	2.46402	0	2e-006
   164	2.46381	0	2e-006
   165	2.4636	0	2e-006
   166	2.46339	0	2e-006
   167	2.46318	0	2e-006
   168	2.46297	0	2e-006
   169	2.46276	0	2e-006
   170	2.46255	0	2e-006
   171	2.46234	0	2e-006
   172	2.46213	0	2e-006
   173	2.46192	0	2e-006
   174	2.46171	0	2e-006
   175	2.4615	0	2e-006
   176	2.46129	0	2e-006
   177	2.46108	0	2e-006
   178	2.46086	0	2e-006
   179	2.46066	0	2e-006
   180	2.46045	0	2e-006
   181	2.46025	0	2e-006
   182	2.46004	0	2e-006
   183	2.45983	0	2e-006
   184	2.45962	0	2e-006
   185	2.45941	0	2e-006
   186	2.4592	0	2e-006
   187	2.45899	0	2e-006
   188	2.45878	0	2e-006
   189	2.45857	0	2e-006
   190	2.45836	0	2e-006
   191	2.45815	0	2e-006
   192	2.45794	0	2e-006
   193	2.45773	0	2e-006
   194	2.45752	0	2e-006
   195	2.45731	0	2e-006
   196	2.4571	0	2e-006
   197	2.45689	0	2e-006
   198	2.45668	0	2e-006
   199	2.45647	0	2e-006
   200	2.45626	0	2e-006
   201	2.45605	0	2e-006
   202	2.45584	0	2e-006
   203	2.45563	0	2e-006
   204	2.45542	0	2e-006
   205	2.45521	0	2e-006
   206	2.455	0	2e-006
   207	2.45479	0	2e-006
   208	2.45458	0	2e-006
   209	2.45437	0	2e-006
   210	2.45416	0	2e-006
   211	2.45395	0	2e-006
   212	2.45374	0	2e-006
   213	2.45354	0	2e-006
   214	2.45333	0	2e-006
   215	2.45312	0	2e-006
   216	2.45291	0	2e-006
   217	2.4527	0	2e-006
   218	2.45249	0	2e-006
   219	2.45228	0	2e-006
   220	2.45207	0	2e-006
   221	2.45186	0	2e-006
   222	2.45165	0	2e-006
   223	2.45144	0	2e-006
   224	2.45123	0	2e-006
   225	2.45102	0	2e-006
   226	2.45081	0	2e-006
   227	2.4506	0	2e-006
   228	2.45039	0	2e-006
   229	2.45018	0	2e-006
   230	2.44997	0	2e-006
   231	2.44976	0	2e-006
   232	2.44956	0	2e-006
   233	2.44935	0	2e-006
   234	2.44914	0	2e-006
   235	2.44893	0	2e-006
   236	2.44872	0	2e-006
   237	2.44851	0	2e-006
   238	2.4483	0	2e-006
   239	2.44809	0	2e-006
   240	2.44788	0	2e-006
   241	2.44767	0	2e-006
   242	2.44746	0	2e-006
   243	2.44725	0	2e-006
   244	2.44704	0	2e-006
   245	2.44683	0	2e-006
   246	2.44662	0	2e-006
   247	2.44641	0	2e-006
   248	2.44621	0	2e-006
   249	2.446	0	2e-006
   250	2.44579	0	2e-006
   251	2.44558	0	2e-006
   252	2.44537	0	2e-006
   253	2.44516	0	2e-006
   254	2.44495	0	2e-006
   255	2.44474	0	2e-006
   256	2.44453	0	2e-006
   257	2.44432	0	2e-006
   258	2.44411	0	2e-006
   259	2.4439	0	2e-006
   260	2.44369	0	2e-006
   261	2.44348	0	2e-006
   262	2.44328	0	2e-006
   263	2.44307	0	2e-006
   264	2.44286	0	2e-006
   265	2.44265	0	2e-006
   266	2.44244	0	2e-006
   267	2.44223	0	2e-006
   268	2.44202	0	2e-006
   269	2.44181	0	2e-006
   270	2.4416	0	2e-006
   271	2.44139	0	2e-006
   272	2.44118	0	2e-006
   273	2.44097	0	2e-006
   274	2.44076	0	2e-006
   275	2.44056	0	2e-006
   276	2.44035	0	2e-006
   277	2.44014	0	2e-006
   278	2.43993	0	2e-006
   279	2.43972	0	2e-006
   280	2.43951	0	2e-006
   281	2.4393	0	2e-006
   282	2.43909	0	2e-006
   283	2.43888	0	2e-006
   284	2.43867	0	2e-006
   285	2.43846	0	2e-006
   286	2.43826	0	2e-006
   287	2.43805	0	2e-006
   288	2.43784	0	2e-006
   289	2.43763	0	2e-006
   290	2.43742	0	2e-006
   291	2.43721	0	2e-006
   292	2.437	0	2e-006
   293	2.43679	0	2e-006
   294	2.43658	0	2e-006
   295	2.43637	0	2e-006
   296	2.43616	0	2e-006
   297	2.43595	0	2e-006
   298	2.43575	0	2e-006
   299	2.43554	0	2e-006
   300	2.43533	0	2e-006
   301	2.43512	0	2e-006
   302	2.43491	0	2e-006
   303	2.4347	0	2e-006
   304	2.43449	0	2e-006
   305	2.43428	0	2e-006
   306	2.43407	0	2e-006
   307	2.43386	0	2e-006
   308	2.43365	0	2e-006
   309	2.43345	0	2e-006
   310	2.43324	0	2e-006
   311	2.43303	0	2e-006
   312	2.43282	0	2e-006
   313	2.43261	0	2e-006
   314	2.4324	0	2e-006
   315	2.43219	0	2e-006
   316	2.43198	0	2e-006
   317	2.43177	0	2e-006
   318	2.43156	0	2e-006
   319	2.43135	0	2e-006
   320	2.43115	0	2e-006
   321	2.43094	0	2e-006
   322	2.43073	0	2e-006
   323	2.43052	0	2e-006
   324	2.43031	0	2e-006
   325	2.4301	0	2e-006
   326	2.42989	0	2e-006
   327	2.42968	0	2e-006
   328	2.42947	0	2e-006
   329	2.42926	0	2e-006
   330	2.42905	0	2e-006
   331	2.42885	0	2e-006
   332	2.42864	0	2e-006
   333	2.42843	0	2e-006
   334	2.42822	0	2e-006
   335	2.42801	0	2e-006
   336	2.4278	0	2e-006
   337	2.42759	0	2e-006
   338	2.42738	0	2e-006
   339	2.42717	0	2e-006
   340	2.42696	0	2e-006
   341	2.42676	0	2e-006
   342	2.42655	0	2e-006
   343	2.42634	0	2e-006
   344	2.42613	0	2e-006
   345	2.42592	0	2e-006
   346	2.42571	0	2e-006
   347	2.4255	0	2e-006
   348	2.42529	0	2e-006
   349	2.42508	0	2e-006
   350	2.42487	0	2e-006
   351	2.42467	0	2e-006
   352	2.42446	0	2e-006
   353	2.42425	0	2e-006
   354	2.42404	0	2e-006
   355	2.42383	0	2e-006
   356	2.42362	0	2e-006
   357	2.42341	0	2e-006
   358	2.4232	0	2e-006
   359	2.42299	0	2e-006
   360	2.42279	0	2e-006
   361	2.42258	0	2e-006
   362	2.42237	0	2e-006
   363	2.42216	0	2e-006
   364	2.42195	0	2e-006
   365	2.42174	0	2e-006
   366	2.42153	0	2e-006
   367	2.42132	0	2e-006
   368	2.42111	0	2e-006
   369	2.4209	0	2e-006
   370	2.4207	0	2e-006
   371	2.42049	0	2e-006
   372	2.42028	0	2e-006
   373	2.42007	0	2e-006
   374	2.41986	0	2e-006
   375	2.41965	0	2e-006
   376	2.41944	0	2e-006
   377	2.41923	0	2e-006
   378	2.41902	0	2e-006
   379	2.41881	0	2e-006
   380	2.41861	0	2e-006
   381	2.4184	0	2e-006
   382	2.41819	0	2e-006
   383	2.41798	0	2e-006
   384	2.41777	0	2e-006
   385	2.41756	0	2e-006
   386	2.41735	0	2e-006
   387	2.41714	0	2e-006
   388	2.41693	0	2e-006
   389	2.41673	0	2e-006
   390	2.41652	0	2e-006
   391	2.41631	0	2e-006
   392	2.4161	0	2e-006
   393	2.41589	0	2e-006
   394	2.41568	0	2e-006
   395	2.41547	0	2e-006
   396	2.41526	0	2e-006
   397	2.41505	0	2e-006
   398	2.41485	0	2e-006
   399	2.41464	0	2e-006
   400	2.41443	0	2e-006
   401	2.41422	0	2e-006
   402	2.41401	0	2e-006
   403	2.4138	0	2e-006
   404	2.41359	0	2e-006
   405	2.41338	0	2e-006
   406	2.41317	0	2e-006
   407	2.41296	0	2e-006
   408	2.41276	0	2e-006
   409	2.41255	0	2e-006
   410	2.41234	0	2e-006
   411	2.41213	0	2e-006
   412	2.41192	0	2e-006
   413	2.41171	0	2e-006
   414	2.4115	0	2e-006
   415	2.41129	0	2e-006
   416	2.41108	0	2e-006
   417	2.41088	0	2e-006
   418	2.41067	0	2e-006
   419	2.41046	0	2e-006
   420	2.41025	0	2e-006
   421	2.41004	0	2e-006
   422	2.40983	0	2e-006
   423	2.40962	0	2e-006
   424	2.40941	0	2e-006
   425	2.40921	0	2e-006
   426	2.409	0	2e-006
   427	2.40879	0	2e-006
   428	2.40858	0	2e-006
   429	2.40837	0	2e-006
   430	2.40816	0	2e-006
   431	2.40795	0	2e-006
   432	2.40774	0	2e-006
   433	2.40753	0	2e-006
   434	2.40733	0	2e-006
   435	2.40712	0	2e-006
   436	2.40691	0	2e-006
   437	2.4067	0	2e-006
   438	2.40649	0	2e-006
   439	2.40628	0	2e-006
   440	2.40607	0	2e-006
   441	2.40586	0	2e-006
   442	2.40565	0	2e-006
   443	2.40545	0	2e-006
   444	2.40524	0	2e-006
   445	2.40503	0	2e-006
   446	2.40482	0	2e-006
   447	2.40461	0	2e-006
   448	2.4044	0	2e-006
   449	2.40419	0	2e-006
   450	2.40398	0	2e-006
   451	2.40377	0	2e-006
   452	2.40357	0	2e-006
   453	2.40336	0	2e-006
   454	2.40315	0	2e-006
   455	2.40294	0	2e-006
   456	2.40273	0	2e-006
   457	2.40252	0	2e-006
   458	2.40231	0	2e-006
   459	2.4021	0	2e-006
   460	2.40189	0	2e-006
   461	2.40169	0	2e-006
   462	2.40148	0	2e-006
   463	2.40127	0	2e-006
   464	2.40106	0	2e-006
   465	2.40085	0	2e-006
   466	2.40064	0	2e-006
   467	2.40043	0	2e-006
   468	2.40022	0	2e-006
   469	2.40001	0	2e-006
   470	2.39981	0	2e-006
   471	2.3996	0	2e-006
   472	2.39939	0	2e-006
   473	2.39918	0	2e-006
   474	2.39897	0	2e-006
   475	2.39876	0	2e-006
   476	2.39855	0	2e-006
   477	2.39834	0	2e-006
   478	2.39814	0	2e-006
   479	2.39793	0	2e-006
   480	2.39772	0	2e-006
   481	2.39751	0	2e-006
   482	2.3973	0	2e-006
   483	2.39709	0	2e-006
   484	2.39688	0	2e-006
   485	2.39667	0	2e-006
   486	2.39646	0	2e-006
   487	2.39626	0	2e-006
   488	2.39605	0	2e-006
   489	2.39584	0	2e-006
   490	2.39563	0	2e-006
   491	2.39542	0	2e-006
   492	2.39521	0	2e-006
   493	2.395	0	2e-006
   494	2.39479	0	2e-006
   495	2.39459	0	2e-006
   496	2.39438	0	2e-006
   497	2.39417	0	2e-006
   498	2.39396	0	2e-006
   499	2.39375	0	2e-006
   500	2.39354	0	2e-006
   501	2.39333	0	2e-006
   502	2.39312	0	2e-006
   503	2.39291	0	2e-006
   504	2.39271	0	2e-006
   505	2.3925	0	2e-006
   506	2.39229	0	2e-006
   507	2.39208	0	2e-006
   508	2.39187	0	2e-006
   509	2.39166	0	2e-006
   510	2.39145	0	2e-006
   511	2.39124	0	2e-006
   512	2.39104	0	2e-006
   513	2.39083	0	2e-006
   514	2.39062	0	2e-006
   515	2.39041	0	2e-006
   516	2.3902	0	2e-006
   517	2.38999	0	2e-006
   518	2.38978	0	2e-006
   519	2.38957	0	2e-006
   520	2.38936	0	2e-006
   521	2.38916	0	2e-006
   522	2.38895	0	2e-006
   523	2.38874	0	2e-006
   524	2.38853	0	2e-006
   525	2.38832	0	2e-006
   526	2.38811	0	2e-006
   527	2.3879	0	2e-006
   528	2.38769	0	2e-006
   529	2.38749	0	2e-006
   530	2.38728	0	2e-006
   531	2.38707	0	2e-006
   532	2.38686	0	2e-006
   533	2.38665	0	2e-006
   534	2.38644	0	2e-006
   535	2.38623	0	2e-006
   536	2.38602	0	2e-006
   537	2.38582	0	2e-006
   538	2.38561	0	2e-006
   539	2.3854	0	2e-006
   540	2.38519	0	2e-006
   541	2.38498	0	2e-006
   542	2.38477	0	2e-006
   543	2.38456	0	2e-006
   544	2.38435	0	2e-006
   545	2.38415	0	2e-006
   546	2.38394	0	2e-006
   547	2.38373	0	2e-006
   548	2.38352	0	2e-006
   549	2.38331	0	2e-006
   550	2.3831	0	2e-006
   551	2.38289	0	2e-006
   552	2.38268	0	2e-006
   553	2.38247	0	2e-006
   554	2.38227	0	2e-006
   555	2.38206	0	2e-006
   556	2.38185	0	2e-006
   557	2.38164	0	2e-006
   558	2.38143	0	2e-006
   559	2.38122	0	2e-006
   560	2.38101	0	2e-006
   561	2.3808	0	2e-006
   562	2.3806	0	2e-006
   563	2.38039	0	2e-006
   564	2.38018	0	2e-006
   565	2.37997	0	2e-006
   566	2.37976	0	2e-006
   567	2.37955	0	2e-006
   568	2.37934	0	2e-006
   569	2.37913	0	2e-006
   570	2.37893	0	2e-006
   571	2.37872	0	2e-006
   572	2.37851	0	2e-006
   573	2.3783	0	2e-006
   574	2.37809	0	2e-006
   575	2.37788	0	2e-006
   576	2.37767	0	2e-006
   577	2.37746	0	2e-006
   578	2.37725	0	2e-006
   579	2.37705	0	2e-006
   580	2.37684	0	2e-006
   581	2.37663	0	2e-006
   582	2.37642	0	2e-006
   583	2.37621	0	2e-006
   584	2.376	0	2e-006
   585	2.37579	0	2e-006
   586	2.37559	0	2e-006
   587	2.37538	0	2e-006
   588	2.37517	0	2e-006
   589	2.37496	0	2e-006
   590	2.37475	0	2e-006
   591	2.37454	0	2e-006
   592	2.37433	0	2e-006
   593	2.37412	0	2e-006
   594	2.37391	0	2e-006
   595	2.37371	0	2e-006
   596	2.3735	0	2e-006
   597	2.37329	0	2e-006
   598	2.37308	0	2e-006
   599	2.37287	0	2e-006
   600	2.37266	0	2e-006
   601	2.37245	0	2e-006
   602	2.37224	0	2e-006
   603	2.37204	0	2e-006
   604	2.37183	0	2e-006
   605	2.37162	0	2e-006
   606	2.37141	0	2e-006
   607	2.3712	0	2e-006
   608	2.37099	0	2e-006
   609	2.37078	0	2e-006
   610	2.37057	0	2e-006
   611	2.37037	0	2e-006
   612	2.37016	0	2e-006
   613	2.36995	0	2e-006
   614	2.36974	0	2e-006
   615	2.36953	0	2e-006
   616	2.36932	0	2e-006
   617	2.36911	0	2e-006
   618	2.3689	0	2e-006
   619	2.3687	0	2e-006
   620	2.36849	0	2e-006
   621	2.36828	0	2e-006
   622	2.36807	0	2e-006
   623	2.36786	0	2e-006
   624	2.36765	0	2e-006
   625	2.36744	0	2e-006
   626	2.36723	0	2e-006
   627	2.36703	0	2e-006
   628	2.36682	0	2e-006
   629	2.36661	0	2e-006
   630	2.3664	0	2e-006
   631	2.36619	0	2e-006
   632	2.36598	0	2e-006
   633	2.36577	0	2e-006
   634	2.36556	0	2e-006
   635	2.36536	0	2e-006
   636	2.36515	0	2e-006
   637	2.36494	0	2e-006
   638	2.36473	0	2e-006
   639	2.36452	0	2e-006
   640	2.36431	0	2e-006
   641	2.3641	0	2e-006
   642	2.36389	0	2e-006
   643	2.36369	0	2e-006
   644	2.36348	0	2e-006
   645	2.36327	0	2e-006
   646	2.36306	0	2e-006
   647	2.36285	0	2e-006
   648	2.36264	0	2e-006
   649	2.36243	0	2e-006
   650	2.36222	0	2e-006
   651	2.36202	0	2e-006
   652	2.36181	0	2e-006
   653	2.3616	0	2e-006
   654	2.36139	0	2e-006
   655	2.36118	0	2e-006
   656	2.36097	0	2e-006
   657	2.36076	0	2e-006
   658	2.36055	0	2e-006
   659	2.36035	0	2e-006
   660	2.36014	0	2e-006
   661	2.35993	0	2e-006
   662	2.35972	0	2e-006
   663	2.35951	0	2e-006
   664	2.3593	0	2e-006
   665	2.35909	0	2e-006
   666	2.35888	0	2e-006
   667	2.35868	0	2e-006
   668	2.35847	0	2e-006
   669	2.35826	0	2e-006
   670	2.35805	0	2e-006
   671	2.35784	0	2e-006
   672	2.35763	0	2e-006
   673	2.35742	0	2e-006
   674	2.35721	0	2e-006
   675	2.35701	0	2e-006
   676	2.3568	0	2e-006
   677	2.35659	0	2e-006
   678	2.35638	0	2e-006
   679	2.35617	0	2e-006
   680	2.35596	0	2e-006
   681	2.35575	0	2e-006
   682	2.35554	0	2e-006
   683	2.35534	0	2e-006
   684	2.35513	0	2e-006
   685	2.35492	0	2e-006
   686	2.35471	0	2e-006
   687	2.3545	0	2e-006
   688	2.35429	0	2e-006
   689	2.35408	0	2e-006
   690	2.35387	0	2e-006
   691	2.35367	0	2e-006
   692	2.35346	0	2e-006
   693	2.35325	0	2e-006
   694	2.35304	0	2e-006
   695	2.35283	0	2e-006
   696	2.35262	0	2e-006
   697	2.35241	0	2e-006
   698	2.3522	0	2e-006
   699	2.352	0	2e-006
   700	2.35179	0	2e-006
   701	2.35158	0	2e-006
   702	2.35137	0	2e-006
   703	2.35116	0	2e-006
   704	2.35095	0	2e-006
   705	2.35074	0	2e-006
   706	2.35053	0	2e-006
   707	2.35033	0	2e-006
   708	2.35012	0	2e-006
   709	2.34991	0	2e-006
   710	2.3497	0	2e-006
   711	2.34949	0	2e-006
   712	2.34928	0	2e-006
   713	2.34907	0	2e-006
   714	2.34886	0	2e-006
   715	2.34866	0	2e-006
   716	2.34845	0	2e-006
   717	2.34824	0	2e-006
   718	2.34803	0	2e-006
   719	2.34782	0	2e-006
   720	2.34761	0	2e-006
   721	2.3474	0	2e-006
   722	2.3472	0	2e-006
   723	2.34699	0	2e-006
   724	2.34678	0	2e-006
   725	2.34657	0	2e-006
   726	2.34636	0	2e-006
   727	2.34615	0	2e-006
   728	2.34594	0	2e-006
   729	2.34573	0	2e-006
   730	2.34553	0	2e-006
   731	2.34532	0	2e-006
   732	2.34511	0	2e-006
   733	2.3449	0	2e-006
   734	2.34469	0	2e-006
   735	2.34448	0	2e-006
   736	2.34427	0	2e-006
   737	2.34406	0	2e-006
   738	2.34386	0	2e-006
   739	2.34365	0	2e-006
   740	2.34344	0	2e-006
   741	2.34323	0	2e-006
   742	2.34302	0	2e-006
   743	2.34281	0	2e-006
   744	2.3426	0	2e-006
   745	2.34239	0	2e-006
   746	2.34219	0	2e-006
   747	2.34198	0	2e-006
   748	2.34177	0	2e-006
   749	2.34156	0	2e-006
   750	2.34135	0	2e-006
   751	2.34114	0	2e-006
   752	2.34093	0	2e-006
   753	2.34072	0	2e-006
   754	2.34052	0	2e-006
   755	2.34031	0	2e-006
   756	2.3401	0	2e-006
   757	2.33989	0	2e-006
   758	2.33968	0	2e-006
   759	2.33947	0	2e-006
   760	2.33926	0	2e-006
   761	2.33905	0	2e-006
   762	2.33885	0	2e-006
   763	2.33864	0	2e-006
   764	2.33843	0	2e-006
   765	2.33822	0	2e-006
   766	2.33801	0	2e-006
   767	2.3378	0	2e-006
   768	2.33759	0	2e-006
   769	2.33738	0	2e-006
   770	2.33718	0	2e-006
   771	2.33697	0	2e-006
   772	2.33676	0	2e-006
   773	2.33655	0	2e-006
   774	2.33634	0	2e-006
   775	2.33613	0	2e-006
   776	2.33592	0	2e-006
   777	2.33572	0	2e-006
   778	2.33551	0	2e-006
   779	2.3353	0	2e-006
   780	2.33509	0	2e-006
   781	2.33488	0	2e-006
   782	2.33467	0	2e-006
   783	2.33446	0	2e-006
   784	2.33425	0	2e-006
   785	2.33404	0	2e-006
   786	2.33384	0	2e-006
   787	2.33363	0	2e-006
   788	2.33342	0	2e-006
   789	2.33321	0	2e-006
   790	2.333	0	2e-006
   791	2.33279	0	2e-006
   792	2.33258	0	2e-006
   793	2.33238	0	2e-006
   794	2.33217	0	2e-006
   795	2.33196	0	2e-006
   796	2.33175	0	2e-006
   797	2.33154	0	2e-006
   798	2.33133	0	2e-006
   799	2.33112	0	2e-006
   800	2.33091	0	2e-006
   801	2.33071	0	2e-006
   802	2.3305	0	2e-006
   803	2.33029	0	2e-006
   804	2.33008	0	2e-006
   805	2.32987	0	2e-006
   806	2.32966	0	2e-006
   807	2.32945	0	2e-006
   808	2.32924	0	2e-006
   809	2.32904	0	2e-006
   810	2.32883	0	2e-006
   811	2.32862	0	2e-006
   812	2.32841	0	2e-006
   813	2.3282	0	2e-006
   814	2.32799	0	2e-006
   815	2.32778	0	2e-006
   816	2.32757	0	2e-006
   817	2.32737	0	2e-006
   818	2.32716	0	2e-006
   819	2.32695	0	2e-006
   820	2.32674	0	2e-006
   821	2.32653	0	2e-006
   822	2.32632	0	2e-006
   823	2.32611	0	2e-006
   824	2.32591	0	2e-006
   825	2.3257	0	2e-006
   826	2.32549	0	2e-006
   827	2.32528	0	2e-006
   828	2.32507	0	2e-006
   829	2.32486	0	2e-006
   830	2.32465	0	2e-006
   831	2.32444	0	2e-006
   832	2.32424	0	2e-006
   833	2.32403	0	2e-006
   834	2.32382	0	2e-006
   835	2.32361	0	2e-006
   836	2.3234	0	2e-006
   837	2.32319	0	2e-006
   838	2.32298	0	2e-006
   839	2.32277	0	2e-006
   840	2.32257	0	2e-006
   841	2.32236	0	2e-006
   842	2.32215	0	2e-006
   843	2.32194	0	2e-006
   844	2.32173	0	2e-006
   845	2.32152	0	2e-006
   846	2.32131	0	2e-006
   847	2.32111	0	2e-006
   848	2.3209	0	2e-006
   849	2.32069	0	2e-006
   850	2.32048	0	2e-006
   851	2.32027	0	2e-006
   852	2.32006	0	2e-006
   853	2.31985	0	2e-006
   854	2.31964	0	2e-006
   855	2.31944	0	2e-006
   856	2.31923	0	2e-006
   857	2.31902	0	2e-006
   858	2.31881	0	2e-006
   859	2.3186	0	2e-006
   860	2.31839	0	2e-006
   861	2.31818	0	2e-006
   862	2.31797	0	2e-006
   863	2.31777	0	2e-006
   864	2.31756	0	2e-006
   865	2.31735	0	2e-006
   866	2.31714	0	2e-006
   867	2.31693	0	2e-006
   868	2.31672	0	2e-006
   869	2.31651	0	2e-006
   870	2.3163	0	2e-006
   871	2.3161	0	2e-006
   872	2.31589	0	2e-006
   873	2.31568	0	2e-006
   874	2.31547	0	2e-006
   875	2.31526	0	2e-006
   876	2.31505	0	2e-006
   877	2.31484	0	2e-006
   878	2.31464	0	2e-006
   879	2.31443	0	2e-006
   880	2.31422	0	2e-006
   881	2.31401	0	2e-006
   882	2.3138	0	2e-006
   883	2.31359	0	2e-006
   884	2.31338	0	2e-006
   885	2.31317	0	2e-006
   886	2.31297	0	2e-006
   887	2.31276	0	2e-006
   888	2.31255	0	2e-006
   889	2.31234	0	2e-006
   890	2.31213	0	2e-006
   891	2.31192	0	2e-006
   892	2.31171	0	2e-006
   893	2.3115	0	2e-006
   894	2.3113	0	2e-006
   895	2.31109	0	2e-006
   896	2.31088	0	2e-006
   897	2.31067	0	2e-006
   898	2.31046	0	2e-006
   899	2.31025	0	2e-006
   900	2.31004	0	2e-006
   901	2.30983	0	2e-006
   902	2.30963	0	2e-006
   903	2.30942	0	2e-006
   904	2.30921	0	2e-006
   905	2.309	0	2e-006
   906	2.30879	0	2e-006
   907	2.30858	0	2e-006
   908	2.30837	0	2e-006
   909	2.30817	0	2e-006
   910	2.30796	0	2e-006
   911	2.30775	0	2e-006
   912	2.30754	0	2e-006
   913	2.30733	0	2e-006
   914	2.30712	0	2e-006
   915	2.30691	0	2e-006
   916	2.3067	0	2e-006
   917	2.3065	0	2e-006
   918	2.30629	0	2e-006
   919	2.30608	0	2e-006
   920	2.30587	0	2e-006
   921	2.30566	0	2e-006
   922	2.30545	0	2e-006
   923	2.30524	0	2e-006
   924	2.30503	0	2e-006
   925	2.30483	0	2e-006
   926	2.30462	0	2e-006
   927	2.30441	0	2e-006
   928	2.3042	0	2e-006
   929	2.30399	0	2e-006
   930	2.30378	0	2e-006
   931	2.30357	0	2e-006
   932	2.30336	0	2e-006
   933	2.30316	0	2e-006
   934	2.30295	0	2e-006
   935	2.30274	0	2e-006
   936	2.30253	0	2e-006
   937	2.30232	0	2e-006
   938	2.30211	0	2e-006
   939	2.3019	0	2e-006
   940	2.3017	0	2e-006
   941	2.30149	0	2e-006
   942	2.30128	0	2e-006
   943	2.30107	0	2e-006
   944	2.30086	0	2e-006
   945	2.30065	0	2e-006
   946	2.30044	0	2e-006
   947	2.30023	0	2e-006
   948	2.30003	0	2e-006
   949	2.29982	0	2e-006
   950	2.29961	0	2e-006
   951	2.2994	0	2e-006
   952	2.29919	0	2e-006
   953	2.29898	0	2e-006
   954	2.29877	0	2e-006
   955	2.29857	0	2e-006
   956	2.29836	0	2e-006
   957	2.29815	0	2e-006
   958	2.29794	0	2e-006
   959	2.29773	0	2e-006
   960	2.29752	0	2e-006
   961	2.29731	0	2e-006
   962	2.2971	0	2e-006
   963	2.2969	0	2e-006
   964	2.29669	0	2e-006
   965	2.29648	0	2e-006
   966	2.29627	0	2e-006
   967	2.29606	0	2e-006
   968	2.29585	0	2e-006
   969	2.29564	0	2e-006
   970	2.29543	0	2e-006
   971	2.29523	0	2e-006
   972	2.29502	0	2e-006
   973	2.29481	0	2e-006
   974	2.2946	0	2e-006
   975	2.29439	0	2e-006
   976	2.29418	0	2e-006
   977	2.29397	0	2e-006
   978	2.29377	0	2e-006
   979	2.29356	0	2e-006
   980	2.29335	0	2e-006
   981	2.29314	0	2e-006
   982	2.29293	0	2e-006
   983	2.29272	0	2e-006
   984	2.29251	0	2e-006
   985	2.2923	0	2e-006
   986	2.2921	0	2e-006
   987	2.29189	0	2e-006
   988	2.29168	0	2e-006
   989	2.29147	0	2e-006
   990	2.29126	0	2e-006
   991	2.29105	0	2e-006
   992	2.29084	0	2e-006
   993	2.29063	0	2e-006
   994	2.29043	0	2e-006
   995	2.29022	0	2e-006
   996	2.29001	0	2e-006
   997	2.2898	0	2e-006
   998	2.28959	0	2e-006
   999	2.28938	0	2e-006
  1000	2.28917	0	2e-006

Measurement: vavg
  step	AVG(v(out))	FROM	TO
     1	2.49976	0	9e-007
     2	2.49956	0	9e-007
     3	2.49934	0	9e-007
     4	2.49914	0	9e-007
     5	2.49893	0	9e-007
     6	2.49872	0	9e-007
     7	2.49851	0	9e-007
     8	2.4983	0	9e-007
     9	2.49809	0	9e-007
    10	2.49789	0	9e-007
    11	2.49768	0	9e-007
    12	2.49747	0	9e-007
    13	2.49726	0	9e-007
    14	2.49705	0	9e-007
    15	2.49684	0	9e-007
    16	2.49663	0	9e-007
    17	2.49643	0	9e-007
    18	2.49622	0	9e-007
    19	2.49601	0	9e-007
    20	2.4958	0	9e-007
    21	2.49559	0	9e-007
    22	2.49538	0	9e-007
    23	2.49517	0	9e-007
    24	2.49497	0	9e-007
    25	2.49476	0	9e-007
    26	2.49455	0	9e-007
    27	2.49434	0	9e-007
    28	2.49413	0	9e-007
    29	2.49392	0	9e-007
    30	2.49371	0	9e-007
    31	2.4935	0	9e-007
    32	2.4933	0	9e-007
    33	2.49309	0	9e-007
    34	2.49288	0	9e-007
    35	2.49267	0	9e-007
    36	2.49246	0	9e-007
    37	2.49225	0	9e-007
    38	2.49204	0	9e-007
    39	2.49184	0	9e-007
    40	2.49163	0	9e-007
    41	2.49142	0	9e-007
    42	2.49121	0	9e-007
    43	2.491	0	9e-007
    44	2.49079	0	9e-007
    45	2.49058	0	9e-007
    46	2.49038	0	9e-007
    47	2.49017	0	9e-007
    48	2.48996	0	9e-007
    49	2.48975	0	9e-007
    50	2.48954	0	9e-007
    51	2.48933	0	9e-007
    52	2.48912	0	9e-007
    53	2.48891	0	9e-007
    54	2.48871	0	9e-007
    55	2.4885	0	9e-007
    56	2.48829	0	9e-007
    57	2.48808	0	9e-007
    58	2.48787	0	9e-007
    59	2.48766	0	9e-007
    60	2.48745	0	9e-007
    61	2.48725	0	9e-007
    62	2.48704	0	9e-007
    63	2.48683	0	9e-007
    64	2.48662	0	9e-007
    65	2.48641	0	9e-007
    66	2.4862	0	9e-007
    67	2.48599	0	9e-007
    68	2.48578	0	9e-007
    69	2.48558	0	9e-007
    70	2.48537	0	9e-007
    71	2.48516	0	9e-007
    72	2.48495	0	9e-007
    73	2.48474	0	9e-007
    74	2.48453	0	9e-007
    75	2.48432	0	9e-007
    76	2.48412	0	9e-007
    77	2.48391	0	9e-007
    78	2.4837	0	9e-007
    79	2.48349	0	9e-007
    80	2.48328	0	9e-007
    81	2.48307	0	9e-007
    82	2.48286	0	9e-007
    83	2.48266	0	9e-007
    84	2.48245	0	9e-007
    85	2.48224	0	9e-007
    86	2.48203	0	9e-007
    87	2.48182	0	9e-007
    88	2.48161	0	9e-007
    89	2.4814	0	9e-007
    90	2.48119	0	9e-007
    91	2.48099	0	9e-007
    92	2.48078	0	9e-007
    93	2.48057	0	9e-007
    94	2.48036	0	9e-007
    95	2.48015	0	9e-007
    96	2.47994	0	9e-007
    97	2.47973	0	9e-007
    98	2.47953	0	9e-007
    99	2.47932	0	9e-007
   100	2.47911	0	9e-007
   101	2.4789	0	9e-007
   102	2.47869	0	9e-007
   103	2.47848	0	9e-007
   104	2.47827	0	9e-007
   105	2.47806	0	9e-007
   106	2.47786	0	9e-007
   107	2.47765	0	9e-007
   108	2.47744	0	9e-007
   109	2.47723	0	9e-007
   110	2.47702	0	9e-007
   111	2.47681	0	9e-007
   112	2.4766	0	9e-007
   113	2.4764	0	9e-007
   114	2.47619	0	9e-007
   115	2.47598	0	9e-007
   116	2.47577	0	9e-007
   117	2.47556	0	9e-007
   118	2.47535	0	9e-007
   119	2.47514	0	9e-007
   120	2.47494	0	9e-007
   121	2.47473	0	9e-007
   122	2.47452	0	9e-007
   123	2.47431	0	9e-007
   124	2.4741	0	9e-007
   125	2.47389	0	9e-007
   126	2.47368	0	9e-007
   127	2.47347	0	9e-007
   128	2.47327	0	9e-007
   129	2.47306	0	9e-007
   130	2.47285	0	9e-007
   131	2.47264	0	9e-007
   132	2.47243	0	9e-007
   133	2.47222	0	9e-007
   134	2.47201	0	9e-007
   135	2.47181	0	9e-007
   136	2.4716	0	9e-007
   137	2.47139	0	9e-007
   138	2.47118	0	9e-007
   139	2.47097	0	9e-007
   140	2.47076	0	9e-007
   141	2.47055	0	9e-007
   142	2.47034	0	9e-007
   143	2.47014	0	9e-007
   144	2.46993	0	9e-007
   145	2.46972	0	9e-007
   146	2.46951	0	9e-007
   147	2.4693	0	9e-007
   148	2.46909	0	9e-007
   149	2.46888	0	9e-007
   150	2.46868	0	9e-007
   151	2.46847	0	9e-007
   152	2.46826	0	9e-007
   153	2.46805	0	9e-007
   154	2.46784	0	9e-007
   155	2.46763	0	9e-007
   156	2.46742	0	9e-007
   157	2.46722	0	9e-007
   158	2.46701	0	9e-007
   159	2.4668	0	9e-007
   160	2.46659	0	9e-007
   161	2.46638	0	9e-007
   162	2.46617	0	9e-007
   163	2.46596	0	9e-007
   164	2.46575	0	9e-007
   165	2.46555	0	9e-007
   166	2.46534	0	9e-007
   167	2.46513	0	9e-007
   168	2.46492	0	9e-007
   169	2.46471	0	9e-007
   170	2.4645	0	9e-007
   171	2.46429	0	9e-007
   172	2.46409	0	9e-007
   173	2.46388	0	9e-007
   174	2.46367	0	9e-007
   175	2.46346	0	9e-007
   176	2.46325	0	9e-007
   177	2.46304	0	9e-007
   178	2.46283	0	9e-007
   179	2.46262	0	9e-007
   180	2.46242	0	9e-007
   181	2.46221	0	9e-007
   182	2.462	0	9e-007
   183	2.46179	0	9e-007
   184	2.46158	0	9e-007
   185	2.46137	0	9e-007
   186	2.46116	0	9e-007
   187	2.46096	0	9e-007
   188	2.46075	0	9e-007
   189	2.46054	0	9e-007
   190	2.46033	0	9e-007
   191	2.46012	0	9e-007
   192	2.45991	0	9e-007
   193	2.4597	0	9e-007
   194	2.4595	0	9e-007
   195	2.45929	0	9e-007
   196	2.45908	0	9e-007
   197	2.45887	0	9e-007
   198	2.45866	0	9e-007
   199	2.45845	0	9e-007
   200	2.45824	0	9e-007
   201	2.45803	0	9e-007
   202	2.45783	0	9e-007
   203	2.45762	0	9e-007
   204	2.45741	0	9e-007
   205	2.4572	0	9e-007
   206	2.45699	0	9e-007
   207	2.45678	0	9e-007
   208	2.45657	0	9e-007
   209	2.45637	0	9e-007
   210	2.45616	0	9e-007
   211	2.45595	0	9e-007
   212	2.45574	0	9e-007
   213	2.45553	0	9e-007
   214	2.45532	0	9e-007
   215	2.45511	0	9e-007
   216	2.4549	0	9e-007
   217	2.4547	0	9e-007
   218	2.45449	0	9e-007
   219	2.45428	0	9e-007
   220	2.45407	0	9e-007
   221	2.45386	0	9e-007
   222	2.45365	0	9e-007
   223	2.45344	0	9e-007
   224	2.45324	0	9e-007
   225	2.45303	0	9e-007
   226	2.45282	0	9e-007
   227	2.45261	0	9e-007
   228	2.4524	0	9e-007
   229	2.45219	0	9e-007
   230	2.45198	0	9e-007
   231	2.45178	0	9e-007
   232	2.45157	0	9e-007
   233	2.45136	0	9e-007
   234	2.45115	0	9e-007
   235	2.45094	0	9e-007
   236	2.45073	0	9e-007
   237	2.45052	0	9e-007
   238	2.45031	0	9e-007
   239	2.45011	0	9e-007
   240	2.4499	0	9e-007
   241	2.44969	0	9e-007
   242	2.44948	0	9e-007
   243	2.44927	0	9e-007
   244	2.44906	0	9e-007
   245	2.44885	0	9e-007
   246	2.44865	0	9e-007
   247	2.44844	0	9e-007
   248	2.44823	0	9e-007
   249	2.44802	0	9e-007
   250	2.44781	0	9e-007
   251	2.4476	0	9e-007
   252	2.44739	0	9e-007
   253	2.44718	0	9e-007
   254	2.44698	0	9e-007
   255	2.44677	0	9e-007
   256	2.44656	0	9e-007
   257	2.44635	0	9e-007
   258	2.44614	0	9e-007
   259	2.44593	0	9e-007
   260	2.44572	0	9e-007
   261	2.44552	0	9e-007
   262	2.44531	0	9e-007
   263	2.4451	0	9e-007
   264	2.44489	0	9e-007
   265	2.44468	0	9e-007
   266	2.44447	0	9e-007
   267	2.44426	0	9e-007
   268	2.44405	0	9e-007
   269	2.44385	0	9e-007
   270	2.44364	0	9e-007
   271	2.44343	0	9e-007
   272	2.44322	0	9e-007
   273	2.44301	0	9e-007
   274	2.4428	0	9e-007
   275	2.44259	0	9e-007
   276	2.44239	0	9e-007
   277	2.44218	0	9e-007
   278	2.44197	0	9e-007
   279	2.44176	0	9e-007
   280	2.44155	0	9e-007
   281	2.44134	0	9e-007
   282	2.44113	0	9e-007
   283	2.44093	0	9e-007
   284	2.44072	0	9e-007
   285	2.44051	0	9e-007
   286	2.4403	0	9e-007
   287	2.44009	0	9e-007
   288	2.43988	0	9e-007
   289	2.43967	0	9e-007
   290	2.43946	0	9e-007
   291	2.43926	0	9e-007
   292	2.43905	0	9e-007
   293	2.43884	0	9e-007
   294	2.43863	0	9e-007
   295	2.43842	0	9e-007
   296	2.43821	0	9e-007
   297	2.438	0	9e-007
   298	2.4378	0	9e-007
   299	2.43759	0	9e-007
   300	2.43738	0	9e-007
   301	2.43717	0	9e-007
   302	2.43696	0	9e-007
   303	2.43675	0	9e-007
   304	2.43654	0	9e-007
   305	2.43633	0	9e-007
   306	2.43613	0	9e-007
   307	2.43592	0	9e-007
   308	2.43571	0	9e-007
   309	2.4355	0	9e-007
   310	2.43529	0	9e-007
   311	2.43508	0	9e-007
   312	2.43487	0	9e-007
   313	2.43467	0	9e-007
   314	2.43446	0	9e-007
   315	2.43425	0	9e-007
   316	2.43404	0	9e-007
   317	2.43383	0	9e-007
   318	2.43362	0	9e-007
   319	2.43341	0	9e-007
   320	2.43321	0	9e-007
   321	2.433	0	9e-007
   322	2.43279	0	9e-007
   323	2.43258	0	9e-007
   324	2.43237	0	9e-007
   325	2.43216	0	9e-007
   326	2.43195	0	9e-007
   327	2.43174	0	9e-007
   328	2.43154	0	9e-007
   329	2.43133	0	9e-007
   330	2.43112	0	9e-007
   331	2.43091	0	9e-007
   332	2.4307	0	9e-007
   333	2.43049	0	9e-007
   334	2.43028	0	9e-007
   335	2.43008	0	9e-007
   336	2.42987	0	9e-007
   337	2.42966	0	9e-007
   338	2.42945	0	9e-007
   339	2.42924	0	9e-007
   340	2.42903	0	9e-007
   341	2.42882	0	9e-007
   342	2.42862	0	9e-007
   343	2.42841	0	9e-007
   344	2.4282	0	9e-007
   345	2.42799	0	9e-007
   346	2.42778	0	9e-007
   347	2.42757	0	9e-007
   348	2.42736	0	9e-007
   349	2.42715	0	9e-007
   350	2.42695	0	9e-007
   351	2.42674	0	9e-007
   352	2.42653	0	9e-007
   353	2.42632	0	9e-007
   354	2.42611	0	9e-007
   355	2.4259	0	9e-007
   356	2.42569	0	9e-007
   357	2.42549	0	9e-007
   358	2.42528	0	9e-007
   359	2.42507	0	9e-007
   360	2.42486	0	9e-007
   361	2.42465	0	9e-007
   362	2.42444	0	9e-007
   363	2.42423	0	9e-007
   364	2.42402	0	9e-007
   365	2.42382	0	9e-007
   366	2.42361	0	9e-007
   367	2.4234	0	9e-007
   368	2.42319	0	9e-007
   369	2.42298	0	9e-007
   370	2.42277	0	9e-007
   371	2.42256	0	9e-007
   372	2.42236	0	9e-007
   373	2.42215	0	9e-007
   374	2.42194	0	9e-007
   375	2.42173	0	9e-007
   376	2.42152	0	9e-007
   377	2.42131	0	9e-007
   378	2.4211	0	9e-007
   379	2.4209	0	9e-007
   380	2.42069	0	9e-007
   381	2.42048	0	9e-007
   382	2.42027	0	9e-007
   383	2.42006	0	9e-007
   384	2.41985	0	9e-007
   385	2.41964	0	9e-007
   386	2.41943	0	9e-007
   387	2.41923	0	9e-007
   388	2.41902	0	9e-007
   389	2.41881	0	9e-007
   390	2.4186	0	9e-007
   391	2.41839	0	9e-007
   392	2.41818	0	9e-007
   393	2.41797	0	9e-007
   394	2.41777	0	9e-007
   395	2.41756	0	9e-007
   396	2.41735	0	9e-007
   397	2.41714	0	9e-007
   398	2.41693	0	9e-007
   399	2.41672	0	9e-007
   400	2.41651	0	9e-007
   401	2.4163	0	9e-007
   402	2.4161	0	9e-007
   403	2.41589	0	9e-007
   404	2.41568	0	9e-007
   405	2.41547	0	9e-007
   406	2.41526	0	9e-007
   407	2.41505	0	9e-007
   408	2.41484	0	9e-007
   409	2.41464	0	9e-007
   410	2.41443	0	9e-007
   411	2.41422	0	9e-007
   412	2.41401	0	9e-007
   413	2.4138	0	9e-007
   414	2.41359	0	9e-007
   415	2.41338	0	9e-007
   416	2.41318	0	9e-007
   417	2.41297	0	9e-007
   418	2.41276	0	9e-007
   419	2.41255	0	9e-007
   420	2.41234	0	9e-007
   421	2.41213	0	9e-007
   422	2.41192	0	9e-007
   423	2.41171	0	9e-007
   424	2.41151	0	9e-007
   425	2.4113	0	9e-007
   426	2.41109	0	9e-007
   427	2.41088	0	9e-007
   428	2.41067	0	9e-007
   429	2.41046	0	9e-007
   430	2.41025	0	9e-007
   431	2.41005	0	9e-007
   432	2.40984	0	9e-007
   433	2.40963	0	9e-007
   434	2.40942	0	9e-007
   435	2.40921	0	9e-007
   436	2.409	0	9e-007
   437	2.40879	0	9e-007
   438	2.40859	0	9e-007
   439	2.40838	0	9e-007
   440	2.40817	0	9e-007
   441	2.40796	0	9e-007
   442	2.40775	0	9e-007
   443	2.40754	0	9e-007
   444	2.40733	0	9e-007
   445	2.40712	0	9e-007
   446	2.40692	0	9e-007
   447	2.40671	0	9e-007
   448	2.4065	0	9e-007
   449	2.40629	0	9e-007
   450	2.40608	0	9e-007
   451	2.40587	0	9e-007
   452	2.40566	0	9e-007
   453	2.40546	0	9e-007
   454	2.40525	0	9e-007
   455	2.40504	0	9e-007
   456	2.40483	0	9e-007
   457	2.40462	0	9e-007
   458	2.40441	0	9e-007
   459	2.4042	0	9e-007
   460	2.40399	0	9e-007
   461	2.40379	0	9e-007
   462	2.40358	0	9e-007
   463	2.40337	0	9e-007
   464	2.40316	0	9e-007
   465	2.40295	0	9e-007
   466	2.40274	0	9e-007
   467	2.40253	0	9e-007
   468	2.40233	0	9e-007
   469	2.40212	0	9e-007
   470	2.40191	0	9e-007
   471	2.4017	0	9e-007
   472	2.40149	0	9e-007
   473	2.40128	0	9e-007
   474	2.40107	0	9e-007
   475	2.40087	0	9e-007
   476	2.40066	0	9e-007
   477	2.40045	0	9e-007
   478	2.40024	0	9e-007
   479	2.40003	0	9e-007
   480	2.39982	0	9e-007
   481	2.39961	0	9e-007
   482	2.3994	0	9e-007
   483	2.3992	0	9e-007
   484	2.39899	0	9e-007
   485	2.39878	0	9e-007
   486	2.39857	0	9e-007
   487	2.39836	0	9e-007
   488	2.39815	0	9e-007
   489	2.39794	0	9e-007
   490	2.39774	0	9e-007
   491	2.39753	0	9e-007
   492	2.39732	0	9e-007
   493	2.39711	0	9e-007
   494	2.3969	0	9e-007
   495	2.39669	0	9e-007
   496	2.39648	0	9e-007
   497	2.39627	0	9e-007
   498	2.39607	0	9e-007
   499	2.39586	0	9e-007
   500	2.39565	0	9e-007
   501	2.39544	0	9e-007
   502	2.39523	0	9e-007
   503	2.39502	0	9e-007
   504	2.39481	0	9e-007
   505	2.39461	0	9e-007
   506	2.3944	0	9e-007
   507	2.39419	0	9e-007
   508	2.39398	0	9e-007
   509	2.39377	0	9e-007
   510	2.39356	0	9e-007
   511	2.39335	0	9e-007
   512	2.39315	0	9e-007
   513	2.39294	0	9e-007
   514	2.39273	0	9e-007
   515	2.39252	0	9e-007
   516	2.39231	0	9e-007
   517	2.3921	0	9e-007
   518	2.39189	0	9e-007
   519	2.39168	0	9e-007
   520	2.39148	0	9e-007
   521	2.39127	0	9e-007
   522	2.39106	0	9e-007
   523	2.39085	0	9e-007
   524	2.39064	0	9e-007
   525	2.39043	0	9e-007
   526	2.39022	0	9e-007
   527	2.39002	0	9e-007
   528	2.38981	0	9e-007
   529	2.3896	0	9e-007
   530	2.38939	0	9e-007
   531	2.38918	0	9e-007
   532	2.38897	0	9e-007
   533	2.38876	0	9e-007
   534	2.38855	0	9e-007
   535	2.38835	0	9e-007
   536	2.38814	0	9e-007
   537	2.38793	0	9e-007
   538	2.38772	0	9e-007
   539	2.38751	0	9e-007
   540	2.3873	0	9e-007
   541	2.38709	0	9e-007
   542	2.38689	0	9e-007
   543	2.38668	0	9e-007
   544	2.38647	0	9e-007
   545	2.38626	0	9e-007
   546	2.38605	0	9e-007
   547	2.38584	0	9e-007
   548	2.38563	0	9e-007
   549	2.38542	0	9e-007
   550	2.38522	0	9e-007
   551	2.38501	0	9e-007
   552	2.3848	0	9e-007
   553	2.38459	0	9e-007
   554	2.38438	0	9e-007
   555	2.38417	0	9e-007
   556	2.38396	0	9e-007
   557	2.38376	0	9e-007
   558	2.38355	0	9e-007
   559	2.38334	0	9e-007
   560	2.38313	0	9e-007
   561	2.38292	0	9e-007
   562	2.38271	0	9e-007
   563	2.3825	0	9e-007
   564	2.3823	0	9e-007
   565	2.38209	0	9e-007
   566	2.38188	0	9e-007
   567	2.38167	0	9e-007
   568	2.38146	0	9e-007
   569	2.38125	0	9e-007
   570	2.38104	0	9e-007
   571	2.38083	0	9e-007
   572	2.38063	0	9e-007
   573	2.38042	0	9e-007
   574	2.38021	0	9e-007
   575	2.38	0	9e-007
   576	2.37979	0	9e-007
   577	2.37958	0	9e-007
   578	2.37937	0	9e-007
   579	2.37917	0	9e-007
   580	2.37896	0	9e-007
   581	2.37875	0	9e-007
   582	2.37854	0	9e-007
   583	2.37833	0	9e-007
   584	2.37812	0	9e-007
   585	2.37791	0	9e-007
   586	2.3777	0	9e-007
   587	2.3775	0	9e-007
   588	2.37729	0	9e-007
   589	2.37708	0	9e-007
   590	2.37687	0	9e-007
   591	2.37666	0	9e-007
   592	2.37645	0	9e-007
   593	2.37624	0	9e-007
   594	2.37604	0	9e-007
   595	2.37583	0	9e-007
   596	2.37562	0	9e-007
   597	2.37541	0	9e-007
   598	2.3752	0	9e-007
   599	2.37499	0	9e-007
   600	2.37478	0	9e-007
   601	2.37458	0	9e-007
   602	2.37437	0	9e-007
   603	2.37416	0	9e-007
   604	2.37395	0	9e-007
   605	2.37374	0	9e-007
   606	2.37353	0	9e-007
   607	2.37332	0	9e-007
   608	2.37311	0	9e-007
   609	2.37291	0	9e-007
   610	2.3727	0	9e-007
   611	2.37249	0	9e-007
   612	2.37228	0	9e-007
   613	2.37207	0	9e-007
   614	2.37186	0	9e-007
   615	2.37165	0	9e-007
   616	2.37145	0	9e-007
   617	2.37124	0	9e-007
   618	2.37103	0	9e-007
   619	2.37082	0	9e-007
   620	2.37061	0	9e-007
   621	2.3704	0	9e-007
   622	2.37019	0	9e-007
   623	2.36998	0	9e-007
   624	2.36978	0	9e-007
   625	2.36957	0	9e-007
   626	2.36936	0	9e-007
   627	2.36915	0	9e-007
   628	2.36894	0	9e-007
   629	2.36873	0	9e-007
   630	2.36852	0	9e-007
   631	2.36832	0	9e-007
   632	2.36811	0	9e-007
   633	2.3679	0	9e-007
   634	2.36769	0	9e-007
   635	2.36748	0	9e-007
   636	2.36727	0	9e-007
   637	2.36706	0	9e-007
   638	2.36686	0	9e-007
   639	2.36665	0	9e-007
   640	2.36644	0	9e-007
   641	2.36623	0	9e-007
   642	2.36602	0	9e-007
   643	2.36581	0	9e-007
   644	2.3656	0	9e-007
   645	2.36539	0	9e-007
   646	2.36519	0	9e-007
   647	2.36498	0	9e-007
   648	2.36477	0	9e-007
   649	2.36456	0	9e-007
   650	2.36435	0	9e-007
   651	2.36414	0	9e-007
   652	2.36393	0	9e-007
   653	2.36373	0	9e-007
   654	2.36352	0	9e-007
   655	2.36331	0	9e-007
   656	2.3631	0	9e-007
   657	2.36289	0	9e-007
   658	2.36268	0	9e-007
   659	2.36247	0	9e-007
   660	2.36227	0	9e-007
   661	2.36206	0	9e-007
   662	2.36185	0	9e-007
   663	2.36164	0	9e-007
   664	2.36143	0	9e-007
   665	2.36122	0	9e-007
   666	2.36101	0	9e-007
   667	2.3608	0	9e-007
   668	2.3606	0	9e-007
   669	2.36039	0	9e-007
   670	2.36018	0	9e-007
   671	2.35997	0	9e-007
   672	2.35976	0	9e-007
   673	2.35955	0	9e-007
   674	2.35934	0	9e-007
   675	2.35914	0	9e-007
   676	2.35893	0	9e-007
   677	2.35872	0	9e-007
   678	2.35851	0	9e-007
   679	2.3583	0	9e-007
   680	2.35809	0	9e-007
   681	2.35788	0	9e-007
   682	2.35767	0	9e-007
   683	2.35747	0	9e-007
   684	2.35726	0	9e-007
   685	2.35705	0	9e-007
   686	2.35684	0	9e-007
   687	2.35663	0	9e-007
   688	2.35642	0	9e-007
   689	2.35621	0	9e-007
   690	2.35601	0	9e-007
   691	2.3558	0	9e-007
   692	2.35559	0	9e-007
   693	2.35538	0	9e-007
   694	2.35517	0	9e-007
   695	2.35496	0	9e-007
   696	2.35475	0	9e-007
   697	2.35454	0	9e-007
   698	2.35434	0	9e-007
   699	2.35413	0	9e-007
   700	2.35392	0	9e-007
   701	2.35371	0	9e-007
   702	2.3535	0	9e-007
   703	2.35329	0	9e-007
   704	2.35308	0	9e-007
   705	2.35288	0	9e-007
   706	2.35267	0	9e-007
   707	2.35246	0	9e-007
   708	2.35225	0	9e-007
   709	2.35204	0	9e-007
   710	2.35183	0	9e-007
   711	2.35162	0	9e-007
   712	2.35142	0	9e-007
   713	2.35121	0	9e-007
   714	2.351	0	9e-007
   715	2.35079	0	9e-007
   716	2.35058	0	9e-007
   717	2.35037	0	9e-007
   718	2.35016	0	9e-007
   719	2.34995	0	9e-007
   720	2.34975	0	9e-007
   721	2.34954	0	9e-007
   722	2.34933	0	9e-007
   723	2.34912	0	9e-007
   724	2.34891	0	9e-007
   725	2.3487	0	9e-007
   726	2.34849	0	9e-007
   727	2.34829	0	9e-007
   728	2.34808	0	9e-007
   729	2.34787	0	9e-007
   730	2.34766	0	9e-007
   731	2.34745	0	9e-007
   732	2.34724	0	9e-007
   733	2.34703	0	9e-007
   734	2.34682	0	9e-007
   735	2.34662	0	9e-007
   736	2.34641	0	9e-007
   737	2.3462	0	9e-007
   738	2.34599	0	9e-007
   739	2.34578	0	9e-007
   740	2.34557	0	9e-007
   741	2.34536	0	9e-007
   742	2.34516	0	9e-007
   743	2.34495	0	9e-007
   744	2.34474	0	9e-007
   745	2.34453	0	9e-007
   746	2.34432	0	9e-007
   747	2.34411	0	9e-007
   748	2.3439	0	9e-007
   749	2.3437	0	9e-007
   750	2.34349	0	9e-007
   751	2.34328	0	9e-007
   752	2.34307	0	9e-007
   753	2.34286	0	9e-007
   754	2.34265	0	9e-007
   755	2.34244	0	9e-007
   756	2.34223	0	9e-007
   757	2.34203	0	9e-007
   758	2.34182	0	9e-007
   759	2.34161	0	9e-007
   760	2.3414	0	9e-007
   761	2.34119	0	9e-007
   762	2.34098	0	9e-007
   763	2.34077	0	9e-007
   764	2.34057	0	9e-007
   765	2.34036	0	9e-007
   766	2.34015	0	9e-007
   767	2.33994	0	9e-007
   768	2.33973	0	9e-007
   769	2.33952	0	9e-007
   770	2.33931	0	9e-007
   771	2.33911	0	9e-007
   772	2.3389	0	9e-007
   773	2.33869	0	9e-007
   774	2.33848	0	9e-007
   775	2.33827	0	9e-007
   776	2.33806	0	9e-007
   777	2.33785	0	9e-007
   778	2.33764	0	9e-007
   779	2.33744	0	9e-007
   780	2.33723	0	9e-007
   781	2.33702	0	9e-007
   782	2.33681	0	9e-007
   783	2.3366	0	9e-007
   784	2.33639	0	9e-007
   785	2.33618	0	9e-007
   786	2.33598	0	9e-007
   787	2.33577	0	9e-007
   788	2.33556	0	9e-007
   789	2.33535	0	9e-007
   790	2.33514	0	9e-007
   791	2.33493	0	9e-007
   792	2.33472	0	9e-007
   793	2.33451	0	9e-007
   794	2.33431	0	9e-007
   795	2.3341	0	9e-007
   796	2.33389	0	9e-007
   797	2.33368	0	9e-007
   798	2.33347	0	9e-007
   799	2.33326	0	9e-007
   800	2.33305	0	9e-007
   801	2.33285	0	9e-007
   802	2.33264	0	9e-007
   803	2.33243	0	9e-007
   804	2.33222	0	9e-007
   805	2.33201	0	9e-007
   806	2.3318	0	9e-007
   807	2.33159	0	9e-007
   808	2.33138	0	9e-007
   809	2.33118	0	9e-007
   810	2.33097	0	9e-007
   811	2.33076	0	9e-007
   812	2.33055	0	9e-007
   813	2.33034	0	9e-007
   814	2.33013	0	9e-007
   815	2.32992	0	9e-007
   816	2.32972	0	9e-007
   817	2.32951	0	9e-007
   818	2.3293	0	9e-007
   819	2.32909	0	9e-007
   820	2.32888	0	9e-007
   821	2.32867	0	9e-007
   822	2.32846	0	9e-007
   823	2.32826	0	9e-007
   824	2.32805	0	9e-007
   825	2.32784	0	9e-007
   826	2.32763	0	9e-007
   827	2.32742	0	9e-007
   828	2.32721	0	9e-007
   829	2.327	0	9e-007
   830	2.32679	0	9e-007
   831	2.32659	0	9e-007
   832	2.32638	0	9e-007
   833	2.32617	0	9e-007
   834	2.32596	0	9e-007
   835	2.32575	0	9e-007
   836	2.32554	0	9e-007
   837	2.32533	0	9e-007
   838	2.32513	0	9e-007
   839	2.32492	0	9e-007
   840	2.32471	0	9e-007
   841	2.3245	0	9e-007
   842	2.32429	0	9e-007
   843	2.32408	0	9e-007
   844	2.32387	0	9e-007
   845	2.32367	0	9e-007
   846	2.32346	0	9e-007
   847	2.32325	0	9e-007
   848	2.32304	0	9e-007
   849	2.32283	0	9e-007
   850	2.32262	0	9e-007
   851	2.32241	0	9e-007
   852	2.3222	0	9e-007
   853	2.322	0	9e-007
   854	2.32179	0	9e-007
   855	2.32158	0	9e-007
   856	2.32137	0	9e-007
   857	2.32116	0	9e-007
   858	2.32095	0	9e-007
   859	2.32074	0	9e-007
   860	2.32054	0	9e-007
   861	2.32033	0	9e-007
   862	2.32012	0	9e-007
   863	2.31991	0	9e-007
   864	2.3197	0	9e-007
   865	2.31949	0	9e-007
   866	2.31928	0	9e-007
   867	2.31907	0	9e-007
   868	2.31887	0	9e-007
   869	2.31866	0	9e-007
   870	2.31845	0	9e-007
   871	2.31824	0	9e-007
   872	2.31803	0	9e-007
   873	2.31782	0	9e-007
   874	2.31761	0	9e-007
   875	2.31741	0	9e-007
   876	2.3172	0	9e-007
   877	2.31699	0	9e-007
   878	2.31678	0	9e-007
   879	2.31657	0	9e-007
   880	2.31636	0	9e-007
   881	2.31615	0	9e-007
   882	2.31595	0	9e-007
   883	2.31574	0	9e-007
   884	2.31553	0	9e-007
   885	2.31532	0	9e-007
   886	2.31511	0	9e-007
   887	2.3149	0	9e-007
   888	2.31469	0	9e-007
   889	2.31448	0	9e-007
   890	2.31428	0	9e-007
   891	2.31407	0	9e-007
   892	2.31386	0	9e-007
   893	2.31365	0	9e-007
   894	2.31344	0	9e-007
   895	2.31323	0	9e-007
   896	2.31302	0	9e-007
   897	2.31282	0	9e-007
   898	2.31261	0	9e-007
   899	2.3124	0	9e-007
   900	2.31219	0	9e-007
   901	2.31198	0	9e-007
   902	2.31177	0	9e-007
   903	2.31156	0	9e-007
   904	2.31135	0	9e-007
   905	2.31115	0	9e-007
   906	2.31094	0	9e-007
   907	2.31073	0	9e-007
   908	2.31052	0	9e-007
   909	2.31031	0	9e-007
   910	2.3101	0	9e-007
   911	2.30989	0	9e-007
   912	2.30969	0	9e-007
   913	2.30948	0	9e-007
   914	2.30927	0	9e-007
   915	2.30906	0	9e-007
   916	2.30885	0	9e-007
   917	2.30864	0	9e-007
   918	2.30843	0	9e-007
   919	2.30823	0	9e-007
   920	2.30802	0	9e-007
   921	2.30781	0	9e-007
   922	2.3076	0	9e-007
   923	2.30739	0	9e-007
   924	2.30718	0	9e-007
   925	2.30697	0	9e-007
   926	2.30676	0	9e-007
   927	2.30656	0	9e-007
   928	2.30635	0	9e-007
   929	2.30614	0	9e-007
   930	2.30593	0	9e-007
   931	2.30572	0	9e-007
   932	2.30551	0	9e-007
   933	2.3053	0	9e-007
   934	2.3051	0	9e-007
   935	2.30489	0	9e-007
   936	2.30468	0	9e-007
   937	2.30447	0	9e-007
   938	2.30426	0	9e-007
   939	2.30405	0	9e-007
   940	2.30384	0	9e-007
   941	2.30363	0	9e-007
   942	2.30343	0	9e-007
   943	2.30322	0	9e-007
   944	2.30301	0	9e-007
   945	2.3028	0	9e-007
   946	2.30259	0	9e-007
   947	2.30238	0	9e-007
   948	2.30217	0	9e-007
   949	2.30197	0	9e-007
   950	2.30176	0	9e-007
   951	2.30155	0	9e-007
   952	2.30134	0	9e-007
   953	2.30113	0	9e-007
   954	2.30092	0	9e-007
   955	2.30071	0	9e-007
   956	2.30051	0	9e-007
   957	2.3003	0	9e-007
   958	2.30009	0	9e-007
   959	2.29988	0	9e-007
   960	2.29967	0	9e-007
   961	2.29946	0	9e-007
   962	2.29925	0	9e-007
   963	2.29904	0	9e-007
   964	2.29884	0	9e-007
   965	2.29863	0	9e-007
   966	2.29842	0	9e-007
   967	2.29821	0	9e-007
   968	2.298	0	9e-007
   969	2.29779	0	9e-007
   970	2.29758	0	9e-007
   971	2.29738	0	9e-007
   972	2.29717	0	9e-007
   973	2.29696	0	9e-007
   974	2.29675	0	9e-007
   975	2.29654	0	9e-007
   976	2.29633	0	9e-007
   977	2.29612	0	9e-007
   978	2.29591	0	9e-007
   979	2.29571	0	9e-007
   980	2.2955	0	9e-007
   981	2.29529	0	9e-007
   982	2.29508	0	9e-007
   983	2.29487	0	9e-007
   984	2.29466	0	9e-007
   985	2.29445	0	9e-007
   986	2.29425	0	9e-007
   987	2.29404	0	9e-007
   988	2.29383	0	9e-007
   989	2.29362	0	9e-007
   990	2.29341	0	9e-007
   991	2.2932	0	9e-007
   992	2.29299	0	9e-007
   993	2.29278	0	9e-007
   994	2.29258	0	9e-007
   995	2.29237	0	9e-007
   996	2.29216	0	9e-007
   997	2.29195	0	9e-007
   998	2.29174	0	9e-007
   999	2.29153	0	9e-007
  1000	2.29132	0	9e-007

Measurement: vpeak
  step	(vavg-vmin)
     1	9.77516e-005
     2	0.000178921
     3	0.000269235
     4	0.000339746
     5	0.000407696
     6	0.000461447
     7	0.000508416
     8	0.000561714
     9	0.000611174
    10	0.000671864
    11	0.000704181
    12	0.000760663
    13	0.000801802
    14	0.000854041
    15	0.000955343
    16	0.000933147
    17	0.000945437
    18	0.000974763
    19	0.000990391
    20	0.00101471
    21	0.00103749
    22	0.00105858
    23	0.00107789
    24	0.00109588
    25	0.00110303
    26	0.00111355
    27	0.00113487
    28	0.00113548
    29	0.00114597
    30	0.00117016
    31	0.00116563
    32	0.00118793
    33	0.00120939
    34	0.00123
    35	0.00124968
    36	0.00126899
    37	0.00128759
    38	0.00130463
    39	0.00132153
    40	0.00133872
    41	0.00135422
    42	0.00136924
    43	0.00138391
    44	0.00139772
    45	0.00141191
    46	0.00142527
    47	0.00143766
    48	0.00145054
    49	0.00146238
    50	0.00147427
    51	0.00148546
    52	0.00149608
    53	0.00150681
    54	0.00151682
    55	0.00152683
    56	0.00153708
    57	0.00154602
    58	0.00155544
    59	0.0015645
    60	0.00157261
    61	0.00158167
    62	0.00158999
    63	0.00159764
    64	0.00160551
    65	0.00161279
    66	0.00162101
    67	0.00162784
    68	0.0016346
    69	0.00164199
    70	0.00164856
    71	0.0016551
    72	0.00166111
    73	0.0016675
    74	0.00167357
    75	0.00167966
    76	0.00168538
    77	0.00169097
    78	0.00169646
    79	0.00170194
    80	0.00170779
    81	0.00171259
    82	0.00171791
    83	0.00172331
    84	0.00172782
    85	0.00173235
    86	0.00173736
    87	0.00174212
    88	0.00174631
    89	0.00175071
    90	0.00175524
    91	0.00175964
    92	0.00176382
    93	0.00176777
    94	0.00177193
    95	0.00177609
    96	0.00177932
    97	0.00178361
    98	0.00178729
    99	0.001791
   100	0.00179458
   101	0.00179805
   102	0.00180149
   103	0.00180507
   104	0.00180817
   105	0.0018114
   106	0.00181519
   107	0.00181781
   108	0.0018208
   109	0.00182438
   110	0.00182748
   111	0.00182986
   112	0.0018332
   113	0.00183606
   114	0.00183868
   115	0.00184178
   116	0.00184428
   117	0.00184684
   118	0.00185024
   119	0.00185227
   120	0.001855
   121	0.00185776
   122	0.00186014
   123	0.00186231
   124	0.00186526
   125	0.00186729
   126	0.00186949
   127	0.00187209
   128	0.00187445
   129	0.00187683
   130	0.00187922
   131	0.00188136
   132	0.00188327
   133	0.00188576
   134	0.00188732
   135	0.00188947
   136	0.00189185
   137	0.00189376
   138	0.0018959
   139	0.00189781
   140	0.00189961
   141	0.00190173
   142	0.00190401
   143	0.00190544
   144	0.00190695
   145	0.00190949
   146	0.00191116
   147	0.00191294
   148	0.00191461
   149	0.00191628
   150	0.00191765
   151	0.00191975
   152	0.00192165
   153	0.00192285
   154	0.00192499
   155	0.00192595
   156	0.00192809
   157	0.00192928
   158	0.00193095
   159	0.00193286
   160	0.00193381
   161	0.00193537
   162	0.0019375
   163	0.00193826
   164	0.00194036
   165	0.00194168
   166	0.00194313
   167	0.00194454
   168	0.00194597
   169	0.00194703
   170	0.00194846
   171	0.00194968
   172	0.00195135
   173	0.00195254
   174	0.0019536
   175	0.00195471
   176	0.00195602
   177	0.00195763
   178	0.00197088
   179	0.00196004
   180	0.00196123
   181	0.00196232
   182	0.00196362
   183	0.00196505
   184	0.001966
   185	0.0019673
   186	0.00196815
   187	0.00196958
   188	0.00197045
   189	0.0019713
   190	0.00197254
   191	0.00197421
   192	0.00197495
   193	0.00197601
   194	0.00197744
   195	0.00197864
   196	0.00197935
   197	0.00198001
   198	0.0019816
   199	0.00198197
   200	0.0019833
   201	0.00198436
   202	0.00198531
   203	0.00198627
   204	0.00198711
   205	0.00198841
   206	0.0019895
   207	0.00199032
   208	0.0019908
   209	0.00199199
   210	0.00199294
   211	0.001994
   212	0.00199474
   213	0.00199556
   214	0.00199652
   215	0.00199734
   216	0.00199795
   217	0.00199903
   218	0.00199986
   219	0.00200081
   220	0.00200129
   221	0.00200168
   222	0.0020033
   223	0.00200449
   224	0.00200497
   225	0.00200582
   226	0.00200653
   227	0.00200751
   228	0.00200809
   229	0.0020087
   230	0.00200976
   231	0.00201037
   232	0.00201119
   233	0.00201225
   234	0.00201275
   235	0.0020131
   236	0.00201395
   237	0.00201477
   238	0.00201559
   239	0.00201654
   240	0.00201691
   241	0.00201763
   242	0.00201834
   243	0.0020193
   244	0.00201967
   245	0.00202036
   246	0.00202144
   247	0.00202214
   248	0.00202264
   249	0.00202322
   250	0.00202359
   251	0.00202454
   252	0.00202489
   253	0.00202574
   254	0.0020268
   255	0.00202727
   256	0.00202754
   257	0.00202847
   258	0.00202883
   259	0.00202979
   260	0.0020305
   261	0.00203085
   262	0.00203133
   263	0.0020314
   264	0.00203228
   265	0.00203297
   266	0.00203329
   267	0.00203456
   268	0.00203456
   269	0.00203522
   270	0.00203609
   271	0.00203683
   272	0.00203641
   273	0.00203789
   274	0.00203826
   275	0.0020385
   276	0.00203933
   277	0.0020398
   278	0.0020402
   279	0.00204139
   280	0.00204147
   281	0.00204171
   282	0.00204232
   283	0.00204314
   284	0.00204375
   285	0.00204386
   286	0.00204444
   287	0.00204505
   288	0.00204603
   289	0.0020456
   290	0.00204648
   291	0.00204719
   292	0.0020473
   293	0.00204815
   294	0.00204912
   295	0.00204886
   296	0.00204934
   297	0.00205005
   298	0.00205042
   299	0.0020509
   300	0.00205125
   301	0.00205148
   302	0.00205244
   303	0.00205313
   304	0.00205326
   305	0.00205315
   306	0.002054
   307	0.00205469
   308	0.00205495
   309	0.00205543
   310	0.00205578
   311	0.00205591
   312	0.00205697
   313	0.0020571
   314	0.00205781
   315	0.00205792
   316	0.0020584
   317	0.00205911
   318	0.00205901
   319	0.00205959
   320	0.00206033
   321	0.00206065
   322	0.00206102
   323	0.00206161
   324	0.0020615
   325	0.00206163
   326	0.00206234
   327	0.00206282
   328	0.00206293
   329	0.00206351
   330	0.00206399
   331	0.00206447
   332	0.0020646
   333	0.00206484
   334	0.00206509
   335	0.00206568
   336	0.00206616
   337	0.00206664
   338	0.00206698
   339	0.00206757
   340	0.00206703
   341	0.00206841
   342	0.00206807
   343	0.00206889
   344	0.00206889
   345	0.00206926
   346	0.00206984
   347	0.00207067
   348	0.00207032
   349	0.00207103
   350	0.00207117
   351	0.00207151
   352	0.00207233
   353	0.00207223
   354	0.0020727
   355	0.0020726
   356	0.00207342
   357	0.0020739
   358	0.00207366
   359	0.00207413
   360	0.0020744
   361	0.00207485
   362	0.00207535
   363	0.00207556
   364	0.00207551
   365	0.00207604
   366	0.00207628
   367	0.002077
   368	0.00207633
   369	0.00207826
   370	0.00207784
   371	0.00207821
   372	0.00207808
   373	0.00207866
   374	0.00207843
   375	0.00207938
   376	0.00207938
   377	0.00207962
   378	0.00207986
   379	0.00208046
   380	0.00208068
   381	0.0020815
   382	0.00208105
   383	0.00208153
   384	0.00208176
   385	0.00208199
   386	0.00208272
   387	0.00208261
   388	0.00208296
   389	0.00208285
   390	0.00208343
   391	0.00208402
   392	0.00208391
   393	0.00208439
   394	0.00208473
   395	0.00208476
   396	0.00208476
   397	0.00208499
   398	0.00208558
   399	0.00208616
   400	0.00208629
   401	0.00208643
   402	0.00208677
   403	0.00208703
   404	0.00208759
   405	0.00208749
   406	0.00208772
   407	0.00208857
   408	0.00208809
   409	0.00208868
   410	0.00208889
   411	0.00208844
   412	0.00208894
   413	0.0020895
   414	0.00208974
   415	0.00208972
   416	0.00209059
   417	0.00209024
   418	0.00209104
   419	0.00209069
   420	0.00209141
   421	0.00209045
   422	0.00209138
   423	0.00209175
   424	0.00209212
   425	0.00209223
   426	0.0020926
   427	0.00209284
   428	0.00209297
   429	0.00209332
   430	0.00209355
   431	0.00209392
   432	0.00209403
   433	0.00209361
   434	0.00209427
   435	0.00209451
   436	0.00209422
   437	0.00209501
   438	0.00209564
   439	0.00209548
   440	0.00209559
   441	0.00209609
   442	0.00209631
   443	0.00209668
   444	0.00209668
   445	0.00209668
   446	0.00209724
   447	0.00209715
   448	0.0020975
   449	0.00209811
   450	0.00209824
   451	0.00209795
   452	0.00209856
   453	0.00209845
   454	0.00209891
   455	0.0020988
   456	0.00209891
   457	0.00209928
   458	0.00209941
   459	0.00209964
   460	0.0021001
   461	0.00210012
   462	0.00209997
   463	0.00210023
   464	0.00210084
   465	0.00210097
   466	0.00210144
   467	0.00210179
   468	0.00210142
   469	0.00210203
   470	0.00210214
   471	0.00210238
   472	0.00210227
   473	0.00210277
   474	0.00210327
   475	0.00210285
   476	0.00210298
   477	0.00210346
   478	0.00210372
   479	0.00210383
   480	0.00210404
   481	0.00210383
   482	0.00210465
   483	0.00210431
   484	0.00210478
   485	0.00210563
   486	0.00210478
   487	0.00210513
   488	0.00210563
   489	0.00210561
   490	0.00210584
   491	0.0021055
   492	0.00210566
   493	0.00210643
   494	0.00210643
   495	0.00210693
   496	0.00210698
   497	0.00210669
   498	0.00210704
   499	0.00210704
   500	0.00210801
   501	0.00210764
   502	0.00210799
   503	0.0021081
   504	0.00210812
   505	0.00210847
   506	0.00210847
   507	0.00210873
   508	0.0021087
   509	0.0021086
   510	0.00210918
   511	0.00210918
   512	0.00211295
   513	0.0021099
   514	0.00210979
   515	0.00211003
   516	0.00211027
   517	0.00210979
   518	0.00211074
   519	0.00211061
   520	0.00211085
   521	0.00211074
   522	0.00211074
   523	0.00211109
   524	0.00211191
   525	0.00211146
   526	0.00211146
   527	0.0021117
   528	0.00211194
   529	0.00211252
   530	0.00211194
   531	0.00211254
   532	0.00211252
   533	0.00211265
   534	0.00211289
   535	0.00211302
   536	0.00211337
   537	0.00211347
   538	0.00211337
   539	0.00211371
   540	0.00211393
   541	0.0021143
   542	0.00211366
   543	0.00211432
   544	0.00211419
   545	0.0021143
   546	0.0021148
   547	0.00211467
   548	0.0021148
   549	0.00211514
   550	0.00211514
   551	0.00211551
   552	0.00211562
   553	0.00211573
   554	0.0021162
   555	0.00211586
   556	0.00211599
   557	0.00211623
   558	0.00211633
   559	0.00211665
   560	0.00211633
   561	0.0021166
   562	0.00211726
   563	0.00211729
   564	0.00211718
   565	0.00211742
   566	0.00211716
   567	0.00211742
   568	0.00211879
   569	0.00211747
   570	0.00211776
   571	0.00211811
   572	0.00211837
   573	0.00211837
   574	0.00211827
   575	0.00211872
   576	0.00211872
   577	0.00211885
   578	0.0021193
   579	0.00211943
   580	0.00211954
   581	0.00211956
   582	0.00211946
   583	0.00212007
   584	0.00212002
   585	0.00212013
   586	0.00211991
   587	0.00212028
   588	0.00212004
   589	0.00212039
   590	0.00212052
   591	0.00212063
   592	0.00212063
   593	0.00212076
   594	0.002121
   595	0.00212158
   596	0.00212147
   597	0.00212169
   598	0.00212158
   599	0.00212171
   600	0.00212208
   601	0.00212221
   602	0.00212219
   603	0.00212206
   604	0.00212219
   605	0.00212264
   606	0.00212266
   607	0.0021229
   608	0.00212314
   609	0.00212243
   610	0.00212301
   611	0.00212288
   612	0.00212351
   613	0.00212291
   614	0.00212272
   615	0.00212371
   616	0.00212362
   617	0.00212396
   618	0.0021242
   619	0.00212343
   620	0.00212396
   621	0.00212431
   622	0.00212433
   623	0.00212444
   624	0.00212457
   625	0.00212523
   626	0.0021247
   627	0.00212481
   628	0.00212542
   629	0.00212529
   630	0.00212553
   631	0.00212563
   632	0.00212542
   633	0.00212576
   634	0.00212542
   635	0.00212576
   636	0.00212598
   637	0.00212622
   638	0.00212635
   639	0.00212674
   640	0.002126
   641	0.00212659
   642	0.00212659
   643	0.00212672
   644	0.00212682
   645	0.00212696
   646	0.00212682
   647	0.00212706
   648	0.00212696
   649	0.00212743
   650	0.00212743
   651	0.00212754
   652	0.00212742
   653	0.00212767
   654	0.00212778
   655	0.00212804
   656	0.00212778
   657	0.00212826
   658	0.00212804
   659	0.00212839
   660	0.00212852
   661	0.00212839
   662	0.00212873
   663	0.00212886
   664	0.00212873
   665	0.00212873
   666	0.0021291
   667	0.00212897
   668	0.00212899
   669	0.00212936
   670	0.0021291
   671	0.00212947
   672	0.00212982
   673	0.00212992
   674	0.00212958
   675	0.00212969
   676	0.00212992
   677	0.00213016
   678	0.00213019
   679	0.00213003
   680	0.0021304
   681	0.00213053
   682	0.0021304
   683	0.0021304
   684	0.00213077
   685	0.00213088
   686	0.00213042
   687	0.00213064
   688	0.00213149
   689	0.00213101
   690	0.00213091
   691	0.00213149
   692	0.00213138
   693	0.00213159
   694	0.0021317
   695	0.00213135
   696	0.00213194
   697	0.00213168
   698	0.00213183
   699	0.00213172
   700	0.0021322
   701	0.00213205
   702	0.00213231
   703	0.00213207
   704	0.00213196
   705	0.00213281
   706	0.00213279
[...]
   834	0.00214221
   835	0.00214221
   836	0.00214243
   837	0.00214174
   838	0.00214221
   839	0.00214221
   840	0.00214232
   841	0.00214267
   842	0.00214206
   843	0.00214232
   844	0.00214304
   845	0.0021428
   846	0.00214283
   847	0.00214256
   848	0.00214304
   849	0.00214306
   850	0.00214317
   851	0.00214314
   852	0.00214269
   853	0.00214304
   854	0.00214338
   855	0.00214317
   856	0.00214328
   857	0.00214362
   858	0.00214391
   859	0.00214365
   860	0.00214341
   861	0.00214375
   862	0.00214312
   863	0.00214375
   864	0.00214378
   865	0.00214434
   866	0.0021441
   867	0.0021441
   868	0.00214399
   869	0.00214473
   870	0.00214423
   871	0.00214436
   872	0.00214363
   873	0.00214412
   874	0.00214447
   875	0.00214436
   876	0.0021446
   877	0.00214412
   878	0.00214436
   879	0.00214494
   880	0.00214516
   881	0.00214484
   882	0.00214529
   883	0.00214484
   884	0.00214471
   885	0.00214473
   886	0.00214508
   887	0.00214481
   888	0.00214531
   889	0.00214531
   890	0.00214531
   891	0.00214508
   892	0.00214542
   893	0.00214564
   894	0.00214518
   895	0.00214542
   896	0.00214542
   897	0.00214566
   898	0.00214544
   899	0.00214579
   900	0.0021459
   901	0.00214566
   902	0.00214603
   903	0.00214579
   904	0.00214579
   905	0.00214614
   906	0.00214564
   907	0.00214624
   908	0.00214637
   909	0.00214627
   910	0.00214651
   911	0.00214659
   912	0.00214661
   913	0.00214696
   914	0.00214673
   915	0.00214685
   916	0.0021464
   917	0.00214661
   918	0.0021472
   919	0.0021472
   920	0.00214685
   921	0.0021464
   922	0.00214724
   923	0.00214733
   924	0.00214731
   925	0.00214709
   926	0.00214767
   927	0.00214709
   928	0.00214709
   929	0.00214709
   930	0.00214722
   931	0.00214767
   932	0.00214781
   933	0.00214745
   934	0.0021477
   935	0.00214757
   936	0.00214781
   937	0.00214794
   938	0.00214791
   939	0.00214804
   940	0.00214767
   941	0.00214783
   942	0.0021477
   943	0.00214828
   944	0.00214852
   945	0.00214817
   946	0.00214839
   947	0.00214794
   948	0.00214828
   949	0.00214837
   950	0.00214828
   951	0.00214852
   952	0.00214852
   953	0.00214841
   954	0.00214863
   955	0.00214854
   956	0.00214852
   957	0.00214876
   958	0.00214889
   959	0.00214889
   960	0.00214878
   961	0.00214889
   962	0.002149
   963	0.00214857
   964	0.00214924
   965	0.00214847
   966	0.00214913
   967	0.00214947
   968	0.00214937
   969	0.00214971
   970	0.00214937
   971	0.00214924
   972	0.00214947
   973	0.00214961
   974	0.00214947
   975	0.00215019
   976	0.00214961
   977	0.00214971
   978	0.00214971
   979	0.00214971
   980	0.00214982
   981	0.00214984
   982	0.00214958
   983	0.00214995
   984	0.00215008
   985	0.0021503
   986	0.00215008
   987	0.00215019
   988	0.00215043
   989	0.00215008
   990	0.00215008
   991	0.00215032
   992	0.00215032
   993	0.00215051
   994	0.00215056
   995	0.00215043
   996	0.00215077
   997	0.00215056
   998	0.00215045
   999	0.00215056
  1000	0.00215067

Measurement: tia_r
  step	r6
     1	10000
     2	20000
     3	30000
     4	40000
     5	50000
     6	60000
     7	70000
     8	80000
     9	90000
    10	100000
    11	110000
    12	120000
    13	130000
    14	140000
    15	150000
    16	160000
    17	170000
    18	180000
    19	190000
    20	200000
    21	210000
    22	220000
    23	230000
    24	240000
    25	250000
    26	260000
    27	270000
    28	280000
    29	290000
    30	300000
    31	310000
    32	320000
    33	330000
    34	340000
    35	350000
    36	360000
    37	370000
    38	380000
    39	390000
    40	400000
    41	410000
    42	420000
    43	430000
    44	440000
    45	450000
    46	460000
    47	470000
    48	480000
    49	490000
    50	500000
    51	510000
    52	520000
    53	530000
    54	540000
    55	550000
    56	560000
    57	570000
    58	580000
    59	590000
    60	600000
    61	610000
    62	620000
    63	630000
    64	640000
    65	650000
    66	660000
    67	670000
    68	680000
    69	690000
    70	700000
    71	710000
    72	720000
    73	730000
    74	740000
    75	750000
    76	760000
    77	770000
    78	780000
    79	790000
    80	800000
    81	810000
    82	820000
    83	830000
    84	840000
    85	850000
    86	860000
    87	870000
    88	880000
    89	890000
    90	900000
    91	910000
    92	920000
    93	930000
    94	940000
    95	950000
    96	960000
    97	970000
    98	980000
    99	990000
   100	1e+006
   101	1.01e+006
   102	1.02e+006
   103	1.03e+006
   104	1.04e+006
   105	1.05e+006
   106	1.06e+006
   107	1.07e+006
   108	1.08e+006
   109	1.09e+006
   110	1.1e+006
   111	1.11e+006
   112	1.12e+006
   113	1.13e+006
   114	1.14e+006
   115	1.15e+006
   116	1.16e+006
   117	1.17e+006
   118	1.18e+006
   119	1.19e+006
   120	1.2e+006
   121	1.21e+006
   122	1.22e+006
   123	1.23e+006
   124	1.24e+006
   125	1.25e+006
   126	1.26e+006
   127	1.27e+006
   128	1.28e+006
   129	1.29e+006
   130	1.3e+006
   131	1.31e+006
   132	1.32e+006
   133	1.33e+006
   134	1.34e+006
   135	1.35e+006
   136	1.36e+006
   137	1.37e+006
   138	1.38e+006
   139	1.39e+006
   140	1.4e+006
   141	1.41e+006
   142	1.42e+006
   143	1.43e+006
   144	1.44e+006
   145	1.45e+006
   146	1.46e+006
   147	1.47e+006
   148	1.48e+006
   149	1.49e+006
   150	1.5e+006
   151	1.51e+006
   152	1.52e+006
   153	1.53e+006
   154	1.54e+006
   155	1.55e+006
   156	1.56e+006
   157	1.57e+006
   158	1.58e+006
   159	1.59e+006
   160	1.6e+006
   161	1.61e+006
   162	1.62e+006
   163	1.63e+006
   164	1.64e+006
   165	1.65e+006
   166	1.66e+006
   167	1.67e+006
   168	1.68e+006
   169	1.69e+006
   170	1.7e+006
   171	1.71e+006
   172	1.72e+006
   173	1.73e+006
   174	1.74e+006
   175	1.75e+006
   176	1.76e+006
   177	1.77e+006
   178	1.78e+006
   179	1.79e+006
   180	1.8e+006
   181	1.81e+006
   182	1.82e+006
   183	1.83e+006
   184	1.84e+006
   185	1.85e+006
   186	1.86e+006
   187	1.87e+006
   188	1.88e+006
   189	1.89e+006
   190	1.9e+006
   191	1.91e+006
   192	1.92e+006
   193	1.93e+006
   194	1.94e+006
   195	1.95e+006
   196	1.96e+006
   197	1.97e+006
   198	1.98e+006
   199	1.99e+006
   200	2e+006
   201	2.01e+006
   202	2.02e+006
   203	2.03e+006
   204	2.04e+006
   205	2.05e+006
   206	2.06e+006
   207	2.07e+006
   208	2.08e+006
   209	2.09e+006
   210	2.1e+006
   211	2.11e+006
   212	2.12e+006
   213	2.13e+006
   214	2.14e+006
   215	2.15e+006
   216	2.16e+006
   217	2.17e+006
   218	2.18e+006
   219	2.19e+006
   220	2.2e+006
   221	2.21e+006
   222	2.22e+006
   223	2.23e+006
   224	2.24e+006
   225	2.25e+006
   226	2.26e+006
   227	2.27e+006
   228	2.28e+006
   229	2.29e+006
   230	2.3e+006
   231	2.31e+006
   232	2.32e+006
   233	2.33e+006
   234	2.34e+006
   235	2.35e+006
   236	2.36e+006
   237	2.37e+006
   238	2.38e+006
   239	2.39e+006
   240	2.4e+006
   241	2.41e+006
   242	2.42e+006
   243	2.43e+006
   244	2.44e+006
   245	2.45e+006
   246	2.46e+006
   247	2.47e+006
   248	2.48e+006
   249	2.49e+006
   250	2.5e+006
   251	2.51e+006
   252	2.52e+006
   253	2.53e+006
   254	2.54e+006
   255	2.55e+006
   256	2.56e+006
   257	2.57e+006
   258	2.58e+006
   259	2.59e+006
   260	2.6e+006
   261	2.61e+006
   262	2.62e+006
   263	2.63e+006
   264	2.64e+006
   265	2.65e+006
   266	2.66e+006
   267	2.67e+006
   268	2.68e+006
   269	2.69e+006
   270	2.7e+006
   271	2.71e+006
   272	2.72e+006
   273	2.73e+006
   274	2.74e+006
   275	2.75e+006
   276	2.76e+006
   277	2.77e+006
   278	2.78e+006
   279	2.79e+006
   280	2.8e+006
   281	2.81e+006
   282	2.82e+006
   283	2.83e+006
   284	2.84e+006
   285	2.85e+006
   286	2.86e+006
   287	2.87e+006
   288	2.88e+006
   289	2.89e+006
   290	2.9e+006
   291	2.91e+006
   292	2.92e+006
   293	2.93e+006
   294	2.94e+006
   295	2.95e+006
   296	2.96e+006
   297	2.97e+006
   298	2.98e+006
   299	2.99e+006
   300	3e+006
   301	3.01e+006
   302	3.02e+006
   303	3.03e+006
   304	3.04e+006
   305	3.05e+006
   306	3.06e+006
   307	3.07e+006
   308	3.08e+006
   309	3.09e+006
   310	3.1e+006
   311	3.11e+006
   312	3.12e+006
   313	3.13e+006
   314	3.14e+006
   315	3.15e+006
   316	3.16e+006
   317	3.17e+006
   318	3.18e+006
   319	3.19e+006
   320	3.2e+006
   321	3.21e+006
   322	3.22e+006
   323	3.23e+006
   324	3.24e+006
   325	3.25e+006
   326	3.26e+006
   327	3.27e+006
   328	3.28e+006
   329	3.29e+006
   330	3.3e+006
   331	3.31e+006
   332	3.32e+006
   333	3.33e+006
   334	3.34e+006
   335	3.35e+006
   336	3.36e+006
   337	3.37e+006
   338	3.38e+006
   339	3.39e+006
   340	3.4e+006
   341	3.41e+006
   342	3.42e+006
   343	3.43e+006
   344	3.44e+006
   345	3.45e+006
   346	3.46e+006
   347	3.47e+006
   348	3.48e+006
   349	3.49e+006
   350	3.5e+006
   351	3.51e+006
   352	3.52e+006
   353	3.53e+006
   354	3.54e+006
   355	3.55e+006
   356	3.56e+006
   357	3.57e+006
   358	3.58e+006
   359	3.59e+006
   360	3.6e+006
   361	3.61e+006
   362	3.62e+006
   363	3.63e+006
   364	3.64e+006
   365	3.65e+006
   366	3.66e+006
   367	3.67e+006
   368	3.68e+006
   369	3.69e+006
   370	3.7e+006
   371	3.71e+006
   372	3.72e+006
   373	3.73e+006
   374	3.74e+006
   375	3.75e+006
   376	3.76e+006
   377	3.77e+006
   378	3.78e+006
   379	3.79e+006
   380	3.8e+006
   381	3.81e+006
   382	3.82e+006
   383	3.83e+006
   384	3.84e+006
   385	3.85e+006
   386	3.86e+006
   387	3.87e+006
   388	3.88e+006
   389	3.89e+006
   390	3.9e+006
   391	3.91e+006
   392	3.92e+006
   393	3.93e+006
   394	3.94e+006
   395	3.95e+006
   396	3.96e+006
   397	3.97e+006
   398	3.98e+006
   399	3.99e+006
   400	4e+006
   401	4.01e+006
   402	4.02e+006
   403	4.03e+006
   404	4.04e+006
   405	4.05e+006
   406	4.06e+006
   407	4.07e+006
   408	4.08e+006
   409	4.09e+006
   410	4.1e+006
   411	4.11e+006
   412	4.12e+006
   413	4.13e+006
   414	4.14e+006
   415	4.15e+006
   416	4.16e+006
   417	4.17e+006
   418	4.18e+006
   419	4.19e+006
   420	4.2e+006
   421	4.21e+006
   422	4.22e+006
   423	4.23e+006
   424	4.24e+006
   425	4.25e+006
   426	4.26e+006
   427	4.27e+006
   428	4.28e+006
   429	4.29e+006
   430	4.3e+006
   431	4.31e+006
   432	4.32e+006
   433	4.33e+006
   434	4.34e+006
   435	4.35e+006
   436	4.36e+006
   437	4.37e+006
   438	4.38e+006
   439	4.39e+006
   440	4.4e+006
   441	4.41e+006
   442	4.42e+006
   443	4.43e+006
   444	4.44e+006
   445	4.45e+006
   446	4.46e+006
   447	4.47e+006
   448	4.48e+006
   449	4.49e+006
   450	4.5e+006
   451	4.51e+006
   452	4.52e+006
   453	4.53e+006
   454	4.54e+006
   455	4.55e+006
   456	4.56e+006
   457	4.57e+006
   458	4.58e+006
   459	4.59e+006
   460	4.6e+006
   461	4.61e+006
   462	4.62e+006
   463	4.63e+006
   464	4.64e+006
   465	4.65e+006
   466	4.66e+006
   467	4.67e+006
   468	4.68e+006
   469	4.69e+006
   470	4.7e+006
   471	4.71e+006
   472	4.72e+006
   473	4.73e+006
   474	4.74e+006
   475	4.75e+006
   476	4.76e+006
   477	4.77e+006
   478	4.78e+006
   479	4.79e+006
   480	4.8e+006
   481	4.81e+006
   482	4.82e+006
   483	4.83e+006
   484	4.84e+006
   485	4.85e+006
   486	4.86e+006
   487	4.87e+006
   488	4.88e+006
   489	4.89e+006
   490	4.9e+006
   491	4.91e+006
   492	4.92e+006
   493	4.93e+006
   494	4.94e+006
   495	4.95e+006
   496	4.96e+006
   497	4.97e+006
   498	4.98e+006
   499	4.99e+006
   500	5e+006
   501	5.01e+006
   502	5.02e+006
   503	5.03e+006
   504	5.04e+006
   505	5.05e+006
   506	5.06e+006
   507	5.07e+006
   508	5.08e+006
   509	5.09e+006
   510	5.1e+006
   511	5.11e+006
   512	5.12e+006
   513	5.13e+006
   514	5.14e+006
   515	5.15e+006
   516	5.16e+006
   517	5.17e+006
   518	5.18e+006
   519	5.19e+006
   520	5.2e+006
   521	5.21e+006
   522	5.22e+006
   523	5.23e+006
   524	5.24e+006
   525	5.25e+006
   526	5.26e+006
   527	5.27e+006
   528	5.28e+006
   529	5.29e+006
   530	5.3e+006
   531	5.31e+006
   532	5.32e+006
   533	5.33e+006
   534	5.34e+006
   535	5.35e+006
   536	5.36e+006
   537	5.37e+006
   538	5.38e+006
   539	5.39e+006
   540	5.4e+006
   541	5.41e+006
   542	5.42e+006
   543	5.43e+006
   544	5.44e+006
   545	5.45e+006
   546	5.46e+006
   547	5.47e+006
   548	5.48e+006
   549	5.49e+006
   550	5.5e+006
   551	5.51e+006
   552	5.52e+006
   553	5.53e+006
   554	5.54e+006
   555	5.55e+006
   556	5.56e+006
   557	5.57e+006
   558	5.58e+006
   559	5.59e+006
   560	5.6e+006
   561	5.61e+006
   562	5.62e+006
   563	5.63e+006
   564	5.64e+006
   565	5.65e+006
   566	5.66e+006
   567	5.67e+006
   568	5.68e+006
   569	5.69e+006
   570	5.7e+006
   571	5.71e+006
   572	5.72e+006
   573	5.73e+006
   574	5.74e+006
   575	5.75e+006
   576	5.76e+006
   577	5.77e+006
   578	5.78e+006
   579	5.79e+006
   580	5.8e+006
   581	5.81e+006
   582	5.82e+006
   583	5.83e+006
   584	5.84e+006
   585	5.85e+006
   586	5.86e+006
   587	5.87e+006
   588	5.88e+006
   589	5.89e+006
   590	5.9e+006
   591	5.91e+006
   592	5.92e+006
   593	5.93e+006
   594	5.94e+006
   595	5.95e+006
   596	5.96e+006
   597	5.97e+006
   598	5.98e+006
   599	5.99e+006
   600	6e+006
   601	6.01e+006
   602	6.02e+006
   603	6.03e+006
   604	6.04e+006
   605	6.05e+006
   606	6.06e+006
   607	6.07e+006
   608	6.08e+006
   609	6.09e+006
   610	6.1e+006
   611	6.11e+006
   612	6.12e+006
   613	6.13e+006
   614	6.14e+006
   615	6.15e+006
   616	6.16e+006
   617	6.17e+006
   618	6.18e+006
   619	6.19e+006
   620	6.2e+006
   621	6.21e+006
   622	6.22e+006
   623	6.23e+006
   624	6.24e+006
   625	6.25e+006
   626	6.26e+006
   627	6.27e+006
   628	6.28e+006
   629	6.29e+006
   630	6.3e+006
   631	6.31e+006
   632	6.32e+006
   633	6.33e+006
   634	6.34e+006
   635	6.35e+006
   636	6.36e+006
   637	6.37e+006
   638	6.38e+006
   639	6.39e+006
   640	6.4e+006
   641	6.41e+006
   642	6.42e+006
   643	6.43e+006
   644	6.44e+006
   645	6.45e+006
   646	6.46e+006
   647	6.47e+006
   648	6.48e+006
   649	6.49e+006
   650	6.5e+006
   651	6.51e+006
   652	6.52e+006
   653	6.53e+006
   654	6.54e+006
   655	6.55e+006
   656	6.56e+006
   657	6.57e+006
   658	6.58e+006
   659	6.59e+006
   660	6.6e+006
   661	6.61e+006
   662	6.62e+006
   663	6.63e+006
   664	6.64e+006
   665	6.65e+006
   666	6.66e+006
   667	6.67e+006
   668	6.68e+006
   669	6.69e+006
   670	6.7e+006
   671	6.71e+006
   672	6.72e+006
   673	6.73e+006
   674	6.74e+006
   675	6.75e+006
   676	6.76e+006
   677	6.77e+006
   678	6.78e+006
   679	6.79e+006
   680	6.8e+006
   681	6.81e+006
   682	6.82e+006
   683	6.83e+006
   684	6.84e+006
   685	6.85e+006
   686	6.86e+006
   687	6.87e+006
   688	6.88e+006
   689	6.89e+006
   690	6.9e+006
   691	6.91e+006
   692	6.92e+006
   693	6.93e+006
   694	6.94e+006
   695	6.95e+006
   696	6.96e+006
   697	6.97e+006
   698	6.98e+006
   699	6.99e+006
   700	7e+006
   701	7.01e+006
   702	7.02e+006
   703	7.03e+006
   704	7.04e+006
   705	7.05e+006
   706	7.06e+006
   707	7.07e+006
   708	7.08e+006
   709	7.09e+006
   710	7.1e+006
   711	7.11e+006
   712	7.12e+006
   713	7.13e+006
   714	7.14e+006
   715	7.15e+006
   716	7.16e+006
   717	7.17e+006
   718	7.18e+006
   719	7.19e+006
   720	7.2e+006
   721	7.21e+006
   722	7.22e+006
   723	7.23e+006
   724	7.24e+006
   725	7.25e+006
   726	7.26e+006
   727	7.27e+006
   728	7.28e+006
   729	7.29e+006
   730	7.3e+006
   731	7.31e+006
   732	7.32e+006
   733	7.33e+006
   734	7.34e+006
   735	7.35e+006
   736	7.36e+006
   737	7.37e+006
   738	7.38e+006
   739	7.39e+006
   740	7.4e+006
   741	7.41e+006
   742	7.42e+006
   743	7.43e+006
   744	7.44e+006
   745	7.45e+006
   746	7.46e+006
   747	7.47e+006
   748	7.48e+006
   749	7.49e+006
   750	7.5e+006
   751	7.51e+006
   752	7.52e+006
   753	7.53e+006
   754	7.54e+006
   755	7.55e+006
   756	7.56e+006
   757	7.57e+006
   758	7.58e+006
   759	7.59e+006
   760	7.6e+006
   761	7.61e+006
   762	7.62e+006
   763	7.63e+006
   764	7.64e+006
   765	7.65e+006
   766	7.66e+006
   767	7.67e+006
   768	7.68e+006
   769	7.69e+006
   770	7.7e+006
   771	7.71e+006
   772	7.72e+006
   773	7.73e+006
   774	7.74e+006
   775	7.75e+006
   776	7.76e+006
   777	7.77e+006
   778	7.78e+006
   779	7.79e+006
   780	7.8e+006
   781	7.81e+006
   782	7.82e+006
   783	7.83e+006
   784	7.84e+006
   785	7.85e+006
   786	7.86e+006
   787	7.87e+006
   788	7.88e+006
   789	7.89e+006
   790	7.9e+006
   791	7.91e+006
   792	7.92e+006
   793	7.93e+006
   794	7.94e+006
   795	7.95e+006
   796	7.96e+006
   797	7.97e+006
   798	7.98e+006
   799	7.99e+006
   800	8e+006
   801	8.01e+006
   802	8.02e+006
   803	8.03e+006
   804	8.04e+006
   805	8.05e+006
   806	8.06e+006
   807	8.07e+006
   808	8.08e+006
   809	8.09e+006
   810	8.1e+006
   811	8.11e+006
   812	8.12e+006
   813	8.13e+006
   814	8.14e+006
   815	8.15e+006
   816	8.16e+006
   817	8.17e+006
   818	8.18e+006
   819	8.19e+006
   820	8.2e+006
   821	8.21e+006
   822	8.22e+006
   823	8.23e+006
   824	8.24e+006
   825	8.25e+006
   826	8.26e+006
   827	8.27e+006
   828	8.28e+006
   829	8.29e+006
   830	8.3e+006
   831	8.31e+006
   832	8.32e+006
   833	8.33e+006
   834	8.34e+006
   835	8.35e+006
   836	8.36e+006
   837	8.37e+006
   838	8.38e+006
   839	8.39e+006
   840	8.4e+006
   841	8.41e+006
   842	8.42e+006
   843	8.43e+006
   844	8.44e+006
   845	8.45e+006
   846	8.46e+006
   847	8.47e+006
   848	8.48e+006
   849	8.49e+006
   850	8.5e+006
   851	8.51e+006
   852	8.52e+006
   853	8.53e+006
   854	8.54e+006
   855	8.55e+006
   856	8.56e+006
   857	8.57e+006
   858	8.58e+006
   859	8.59e+006
   860	8.6e+006
   861	8.61e+006
   862	8.62e+006
   863	8.63e+006
   864	8.64e+006
   865	8.65e+006
   866	8.66e+006
   867	8.67e+006
   868	8.68e+006
   869	8.69e+006
   870	8.7e+006
   871	8.71e+006
   872	8.72e+006
   873	8.73e+006
   874	8.74e+006
   875	8.75e+006
   876	8.76e+006
   877	8.77e+006
   878	8.78e+006
   879	8.79e+006
   880	8.8e+006
   881	8.81e+006
   882	8.82e+006
   883	8.83e+006
   884	8.84e+006
   885	8.85e+006
   886	8.86e+006
   887	8.87e+006
   888	8.88e+006
   889	8.89e+006
   890	8.9e+006
   891	8.91e+006
   892	8.92e+006
   893	8.93e+006
   894	8.94e+006
   895	8.95e+006
   896	8.96e+006
   897	8.97e+006
   898	8.98e+006
   899	8.99e+006
   900	9e+006
   901	9.01e+006
   902	9.02e+006
   903	9.03e+006
   904	9.04e+006
   905	9.05e+006
   906	9.06e+006
   907	9.07e+006
   908	9.08e+006
   909	9.09e+006
   910	9.1e+006
   911	9.11e+006
   912	9.12e+006
   913	9.13e+006
   914	9.14e+006
   915	9.15e+006
   916	9.16e+006
   917	9.17e+006
   918	9.18e+006
   919	9.19e+006
   920	9.2e+006
   921	9.21e+006
   922	9.22e+006
   923	9.23e+006
   924	9.24e+006
   925	9.25e+006
   926	9.26e+006
   927	9.27e+006
   928	9.28e+006
   929	9.29e+006
   930	9.3e+006
   931	9.31e+006
   932	9.32e+006
   933	9.33e+006
   934	9.34e+006
   935	9.35e+006
   936	9.36e+006
   937	9.37e+006
   938	9.38e+006
   939	9.39e+006
   940	9.4e+006
   941	9.41e+006
   942	9.42e+006
   943	9.43e+006
   944	9.44e+006
   945	9.45e+006
   946	9.46e+006
   947	9.47e+006
   948	9.48e+006
   949	9.49e+006
   950	9.5e+006
   951	9.51e+006
   952	9.52e+006
   953	9.53e+006
   954	9.54e+006
   955	9.55e+006
   956	9.56e+006
   957	9.57e+006
   958	9.58e+006
   959	9.59e+006
   960	9.6e+006
   961	9.61e+006
   962	9.62e+006
   963	9.63e+006
   964	9.64e+006
   965	9.65e+006
   966	9.66e+006
   967	9.67e+006
   968	9.68e+006
   969	9.69e+006
   970	9.7e+006
   971	9.71e+006
   972	9.72e+006
   973	9.73e+006
   974	9.74e+006
   975	9.75e+006
   976	9.76e+006
   977	9.77e+006
   978	9.78e+006
   979	9.79e+006
   980	9.8e+006
   981	9.81e+006
   982	9.82e+006
   983	9.83e+006
   984	9.84e+006
   985	9.85e+006
   986	9.86e+006
   987	9.87e+006
   988	9.88e+006
   989	9.89e+006
   990	9.9e+006
   991	9.91e+006
   992	9.92e+006
   993	9.93e+006
   994	9.94e+006
   995	9.95e+006
   996	9.96e+006
   997	9.97e+006
   998	9.98e+006
   999	9.99e+006
  1000	1e+007

Measurement "tia_c" FAIL'ed


Date: Wed Aug 01 13:32:19 2018
Total elapsed time: 61.943 seconds.

tnom = 27
temp = 27
method = modified trap
totiter = 3062
traniter = 2112
tranpoints = 1057
accept = 1053
rejected = 4
matrix size = 23
fillins = 14
solver = Normal
Matrix Compiler1: 2.10 KB object code size  0.4/0.3/[0.1]
Matrix Compiler2: 2.19 KB object code size  0.2/0.4/[0.2]

