Circuit: * F:\Projekty\Gamma_PIN\Github\Gamma PIN TL072\PIN gamma simulation.asc

C12: Increased Cpar to 1e-013
C8: Increased Cpar to 1e-013
C7: Increased Cpar to 1e-014
C2: Increased Cpar to 1e-012
Early termination of direct N-R iteration.
Direct Newton iteration failed to find .op point.  (Use ".option noopiter" to skip.)
Starting Gmin stepping
Gmin = 10
vernier = 0.5
vernier = 0.25
vernier = 0.125
Gmin = 5.5165
vernier = 0.0625
vernier = 0.03125
vernier = 0.015625
vernier = 0.0078125
Gmin = 5.49501
vernier = 0.00390625
vernier = 0.00195313
vernier = 0.000976563
vernier = 0.000488281
Gmin = 5.50104
Gmin = 0
Gmin stepping failed

Starting source stepping with srcstepmethod=0
Source Step = 3.0303%
Source Step = 33.3333%
Source Step = 63.6364%
Source Step = 93.9394%
Source stepping succeeded in finding the operating point.


Date: Sat Jul 28 15:08:33 2018
Total elapsed time: 0.359 seconds.

tnom = 27
temp = 27
method = modified trap
totiter = 4500
traniter = 2829
tranpoints = 1350
accept = 1268
rejected = 82
matrix size = 83
fillins = 538
solver = Normal
Thread vector: 5.4/4.8[2] 2.3/1.9[2] 2.3/2.0[2] 0.5/1.1[1]  2592/500
Matrix Compiler1: 55.29 KB object code size  7.9/5.3/[1.9]
Matrix Compiler2: 16.36 KB object code size  3.2/2.4/[0.7]

